Invalid MIT-MAGIC-COOKIE-1 key--------------------------------------------------------------------------------
 Model Input Parameters:  ROMS/TOMS version 3.9  
                          Thursday - December 8, 2022 -  9:14:24 AM
--------------------------------------------------------------------------------

 Brazil 2014 1/20 rotated 55W-25W - 42S-0N (221x651x30)

 Operating system  : Linux
 CPU/hardware      : x86_64
 Compiler system   : gfortran
 Compiler command  : /usr/bin/mpif90
 Compiler flags    : -frepack-arrays -O3 -ffast-math -O3 -ffast-math -
 OCN Communicator  : 0,  PET size = 40

 Input Script      : /home/ivans/roms/cases/brz/brz0.05r/expts/d-temporary/roms_in/ocean_brz0.05r_01d_20140101.in

 SVN Root URL     : https://www.myroms.org/svn/src/trunk
 SVN Revision     : 1042

 Local Root       : /home/ivans/Dropbox/numex/roms/trunk
 Header Dir       : /home/ivans/operational/roms/code
 Header file      : brazil_my25.h
 Analytical Dir   : /home/ivans/operational/roms/code

 Resolution, Grid 01: 219x649x30,  Parallel Nodes: 40,  Tiling: 8x5


 Physical Parameters, Grid: 01
 =============================

        720  ntimes            Number of timesteps for 3-D equations.
    120.000  dt                Timestep size (s) for 3-D equations.
         30  ndtfast           Number of timesteps for 2-D equations between
                                 each 3D timestep.
          1  ERstr             Starting ensemble/perturbation run number.
          1  ERend             Ending ensemble/perturbation run number.
          0  nrrec             Number of restart records to read from disk.
          T  LcycleRST         Switch to recycle time-records in restart file.
        720  nRST              Number of timesteps between the writing of data
                                 into restart fields.
          1  ninfo             Number of timesteps between print of information
                                 to standard output.
          T  ldefout           Switch to create a new output NetCDF file(s).
        180  nHIS              Number of timesteps between the writing fields
                                 into history file.
         30  nQCK              Number of timesteps between the writing fields
                                 into quicksave file.
          1  ntsAVG            Starting timestep for the accumulation of output
                                 time-averaged data.
        720  nAVG              Number of timesteps between the writing of
                                 time-averaged data into averages file.
 0.0000E+00  nl_tnu4(01)       NLM Horizontal, biharmonic mixing coefficient
                                 (m4/s) for tracer 01: temp
 0.0000E+00  nl_tnu4(02)       NLM Horizontal, biharmonic mixing coefficient
                                 (m4/s) for tracer 02: salt
 5.0000E+00  nl_visc2          NLM Horizontal, harmonic mixing coefficient
                                 (m2/s) for momentum.
          F  LuvSponge         Turning OFF sponge on horizontal momentum.
          F  LtracerSponge(01) Turning OFF sponge on tracer 01: temp
          F  LtracerSponge(02) Turning OFF sponge on tracer 02: salt
 1.0000E-06  Akt_bak(01)       Background vertical mixing coefficient (m2/s)
                                 for tracer 01: temp
 1.0000E-06  Akt_bak(02)       Background vertical mixing coefficient (m2/s)
                                 for tracer 02: salt
 1.0000E-05  Akv_bak           Background vertical mixing coefficient (m2/s)
                                 for momentum.
 5.0000E-06  Akk_bak           Background vertical mixing coefficient (m2/s)
                                 for turbulent energy.
 5.0000E-06  Akp_bak           Background vertical mixing coefficient (m2/s)
                                 for turbulent generic statistical field.
 3.0000E-04  rdrg              Linear bottom drag coefficient (m/s).
 3.0000E-03  rdrg2             Quadratic bottom drag coefficient.
 2.0000E-02  Zob               Bottom roughness (m).
 1.0000E+01  blk_ZQ            Height (m) of surface air humidity measurement.
 1.0000E+01  blk_ZT            Height (m) of surface air temperature measurement.
 1.0000E+01  blk_ZW            Height (m) of surface winds measurement.
          1  lmd_Jwt           Jerlov water type.
          2  Vtransform        S-coordinate transformation equation.
          4  Vstretching       S-coordinate stretching function.
 4.0000E+00  theta_s           S-coordinate surface control parameter.
 4.0000E+00  theta_b           S-coordinate bottom  control parameter.
    100.000  Tcline            S-coordinate surface/bottom layer width (m) used
                                 in vertical coordinate stretching.
   1025.000  rho0              Mean density (kg/m3) for Boussinesq approximation.
   5114.000  dstart            Time-stamp assigned to model initialization (days).
      0.000  tide_start        Reference time origin for tidal forcing (days).
20000101.00  time_ref          Reference time for units attribute (yyyymmdd.dd)
 3.6000E+02  Tnudg(01)         Nudging/relaxation time scale (days)
                                 for tracer 01: temp
 3.6000E+02  Tnudg(02)         Nudging/relaxation time scale (days)
                                 for tracer 02: salt
 3.6000E+02  Znudg             Nudging/relaxation time scale (days)
                                 for free-surface.
 3.6000E+02  M2nudg            Nudging/relaxation time scale (days)
                                 for 2D momentum.
 3.6000E+02  M3nudg            Nudging/relaxation time scale (days)
                                 for 3D momentum.
 1.2000E+02  obcfac            Factor between passive and active
                                 open boundary conditions.
          F  VolCons(1)        NLM western  edge boundary volume conservation.
          F  VolCons(2)        NLM southern edge boundary volume conservation.
          F  VolCons(3)        NLM eastern  edge boundary volume conservation.
          F  VolCons(4)        NLM northern edge boundary volume conservation.
     14.000  T0                Background potential temperature (C) constant.
     35.000  S0                Background salinity (PSU) constant.
      1.000  gamma2            Slipperiness variable: free-slip (1.0) or 
                                                      no-slip (-1.0).
          F  LuvSrc            Turning OFF momentum point Sources/Sinks.
          F  LwSrc             Turning OFF volume influx point Sources/Sinks.
          F  LtracerSrc(01)    Turning OFF point Sources/Sinks on tracer 01: temp
          F  LtracerSrc(02)    Turning OFF point Sources/Sinks on tracer 02: salt
          F  LsshCLM           Turning OFF processing of SSH climatology.
          F  Lm2CLM            Turning OFF processing of 2D momentum climatology.
          T  Lm3CLM            Turning ON  processing of 3D momentum climatology.
          T  LtracerCLM(01)    Turning ON  processing of climatology tracer 01: temp
          T  LtracerCLM(02)    Turning ON  processing of climatology tracer 02: salt
          F  LnudgeM2CLM       Turning OFF nudging of 2D momentum climatology.
          T  LnudgeM3CLM       Turning ON  nudging of 3D momentum climatology.
          T  LnudgeTCLM(01)    Turning ON  nudging of climatology tracer 01: temp
          T  LnudgeTCLM(02)    Turning ON  nudging of climatology tracer 02: salt

          T  Hout(idFsur)      Write out free-surface.
          T  Hout(idu2dE)      Write out 2D U-eastward  at RHO-points.
          T  Hout(idv2dN)      Write out 2D V-northward at RHO-points.
          T  Hout(idUvel)      Write out 3D U-momentum component.
          T  Hout(idVvel)      Write out 3D V-momentum component.
          T  Hout(idu3dE)      Write out 3D U-wastward  component at RHO-points.
          T  Hout(idv3dN)      Write out 3D V-northward component at RHO-points.
          T  Hout(idTvar)      Write out tracer 01: temp
          T  Hout(idTvar)      Write out tracer 02: salt
          T  Hout(idUair)      Write out surface U-wind component.
          T  Hout(idVair)      Write out surface V-wind component.

          T  Qout(idFsur)      Write out free-surface.
          T  Qout(idu2dE)      Write out 2D U-eastward  at RHO-points.
          T  Qout(idv2dN)      Write out 2D V-northward at RHO-points.
          T  Qout(idsurT)      Write out surface tracer 01: temp_sur
          T  Qout(idsurT)      Write out surface tracer 02: salt_sur

          T  Aout(idFsur)      Write out averaged free-surface.
          T  Aout(idUbar)      Write out averaged 2D U-momentum component.
          T  Aout(idVbar)      Write out averaged 2D V-momentum component.
          T  Aout(idu2dE)      Write out averaged 2D U-eastward  at RHO-points.
          T  Aout(idv2dN)      Write out averaged 2D V-northward at RHO-points.
          T  Aout(idUvel)      Write out averaged 3D U-momentum component.
          T  Aout(idVvel)      Write out averaged 3D V-momentum component.
          T  Aout(idu3dE)      Write out averaged 3D U-eastward  at RHO-points.
          T  Aout(idv3dN)      Write out averaged 3D V-northward at RHO-points.
          T  Aout(idTvar)      Write out averaged tracer 01: temp
          T  Aout(idTvar)      Write out averaged tracer 02: salt

 Output/Input Files:

               Output Restart File:  /home/ivans/roms/cases/brz/brz0.05r/expts/d-temporary/roms_out/roms_rst.nc
               Output History File:  /home/ivans/roms/cases/brz/brz0.05r/expts/d-temporary/roms_out/roms_his.nc
              Output Averages File:  /home/ivans/roms/cases/brz/brz0.05r/expts/d-temporary/roms_out/roms_avg.nc
                   Input Grid File:  /home/ivans/roms/cases/brz/brz0.05r/expts/d-temporary/roms_in/roms_grd.nc
      Input Nonlinear Initial File:  /home/ivans/roms/cases/brz/brz0.05r/expts/d-temporary/roms_in/roms_ini.nc
                Tidal Forcing File:  /home/ivans/roms/cases/brz/brz0.05r/expts/d-temporary/roms_in/roms_tid.nc
             Input Forcing File 01:  /home/ivans/storage_at01/environment/atmos_era5/humi_era2014b.nc
             Input Forcing File 02:  /home/ivans/storage_at01/environment/atmos_era5/lwrad_era2014b.nc
             Input Forcing File 03:  /home/ivans/storage_at01/environment/atmos_era5/pressure_era2014b.nc
             Input Forcing File 04:  /home/ivans/storage_at01/environment/atmos_era5/rain_era2014b.nc
             Input Forcing File 05:  /home/ivans/storage_at01/environment/atmos_era5/srad_era2014b.nc
             Input Forcing File 06:  /home/ivans/storage_at01/environment/atmos_era5/temp_era2014b.nc
             Input Forcing File 07:  /home/ivans/storage_at01/environment/atmos_era5/u_era2014b.nc
             Input Forcing File 08:  /home/ivans/storage_at01/environment/atmos_era5/v_era2014b.nc
         Input Climatology File 01:  /home/ivans/roms/cases/brz/brz0.05r/expts/d-temporary/roms_in/roms_clm.nc
     Input Nudge Coefficients File:  /home/ivans/roms/cases/brz/brz0.05r/expts/d-temporary/roms_in/roms_nud.nc
    Input Lateral Boundary File 01:  /home/ivans/roms/cases/brz/brz0.05r/expts/d-temporary/roms_in/roms_bry.nc
 fname = /home/ivans/operational/roms/code/varinfo_era5.dat                                                                                                                                                                                                              
  ROMS I/O variables Metadata File:  /home/ivans/operational/roms/code/varinfo_era5.dat

 Tile partition information for Grid 01:  219x649x30  tiling: 8x5

     tile     Istr     Iend     Jstr     Jend     Npts

        0        1       26        1      130   101400
        1       27       54        1      130   109200
        2       55       82        1      130   109200
        3       83      110        1      130   109200
        4      111      138        1      130   109200
        5      139      166        1      130   109200
        6      167      194        1      130   109200
        7      195      219        1      130    97500
        8        1       26      131      260   101400
        9       27       54      131      260   109200
       10       55       82      131      260   109200
       11       83      110      131      260   109200
       12      111      138      131      260   109200
       13      139      166      131      260   109200
       14      167      194      131      260   109200
       15      195      219      131      260    97500
       16        1       26      261      390   101400
       17       27       54      261      390   109200
       18       55       82      261      390   109200
       19       83      110      261      390   109200
       20      111      138      261      390   109200
       21      139      166      261      390   109200
       22      167      194      261      390   109200
       23      195      219      261      390    97500
       24        1       26      391      520   101400
       25       27       54      391      520   109200
       26       55       82      391      520   109200
       27       83      110      391      520   109200
       28      111      138      391      520   109200
       29      139      166      391      520   109200
       30      167      194      391      520   109200
       31      195      219      391      520    97500
       32        1       26      521      649   100620
       33       27       54      521      649   108360
       34       55       82      521      649   108360
       35       83      110      521      649   108360
       36      111      138      521      649   108360
       37      139      166      521      649   108360
       38      167      194      521      649   108360
       39      195      219      521      649    96750

 Tile minimum and maximum fractional coordinates for Grid 01:
   (interior points only)

     tile     Xmin     Xmax     Ymin     Ymax     grid

        0     0.50    26.50     0.50   130.50  RHO-points
        1    26.50    54.50     0.50   130.50  RHO-points
        2    54.50    82.50     0.50   130.50  RHO-points
        3    82.50   110.50     0.50   130.50  RHO-points
        4   110.50   138.50     0.50   130.50  RHO-points
        5   138.50   166.50     0.50   130.50  RHO-points
        6   166.50   194.50     0.50   130.50  RHO-points
        7   194.50   219.50     0.50   130.50  RHO-points
        8     0.50    26.50   130.50   260.50  RHO-points
        9    26.50    54.50   130.50   260.50  RHO-points
       10    54.50    82.50   130.50   260.50  RHO-points
       11    82.50   110.50   130.50   260.50  RHO-points
       12   110.50   138.50   130.50   260.50  RHO-points
       13   138.50   166.50   130.50   260.50  RHO-points
       14   166.50   194.50   130.50   260.50  RHO-points
       15   194.50   219.50   130.50   260.50  RHO-points
       16     0.50    26.50   260.50   390.50  RHO-points
       17    26.50    54.50   260.50   390.50  RHO-points
       18    54.50    82.50   260.50   390.50  RHO-points
       19    82.50   110.50   260.50   390.50  RHO-points
       20   110.50   138.50   260.50   390.50  RHO-points
       21   138.50   166.50   260.50   390.50  RHO-points
       22   166.50   194.50   260.50   390.50  RHO-points
       23   194.50   219.50   260.50   390.50  RHO-points
       24     0.50    26.50   390.50   520.50  RHO-points
       25    26.50    54.50   390.50   520.50  RHO-points
       26    54.50    82.50   390.50   520.50  RHO-points
       27    82.50   110.50   390.50   520.50  RHO-points
       28   110.50   138.50   390.50   520.50  RHO-points
       29   138.50   166.50   390.50   520.50  RHO-points
       30   166.50   194.50   390.50   520.50  RHO-points
       31   194.50   219.50   390.50   520.50  RHO-points
       32     0.50    26.50   520.50   649.50  RHO-points
       33    26.50    54.50   520.50   649.50  RHO-points
       34    54.50    82.50   520.50   649.50  RHO-points
       35    82.50   110.50   520.50   649.50  RHO-points
       36   110.50   138.50   520.50   649.50  RHO-points
       37   138.50   166.50   520.50   649.50  RHO-points
       38   166.50   194.50   520.50   649.50  RHO-points
       39   194.50   219.50   520.50   649.50  RHO-points

        0     1.00    26.50     0.50   130.50    U-points
        1    26.50    54.50     0.50   130.50    U-points
        2    54.50    82.50     0.50   130.50    U-points
        3    82.50   110.50     0.50   130.50    U-points
        4   110.50   138.50     0.50   130.50    U-points
        5   138.50   166.50     0.50   130.50    U-points
        6   166.50   194.50     0.50   130.50    U-points
        7   194.50   219.00     0.50   130.50    U-points
        8     1.00    26.50   130.50   260.50    U-points
        9    26.50    54.50   130.50   260.50    U-points
       10    54.50    82.50   130.50   260.50    U-points
       11    82.50   110.50   130.50   260.50    U-points
       12   110.50   138.50   130.50   260.50    U-points
       13   138.50   166.50   130.50   260.50    U-points
       14   166.50   194.50   130.50   260.50    U-points
       15   194.50   219.00   130.50   260.50    U-points
       16     1.00    26.50   260.50   390.50    U-points
       17    26.50    54.50   260.50   390.50    U-points
       18    54.50    82.50   260.50   390.50    U-points
       19    82.50   110.50   260.50   390.50    U-points
       20   110.50   138.50   260.50   390.50    U-points
       21   138.50   166.50   260.50   390.50    U-points
       22   166.50   194.50   260.50   390.50    U-points
       23   194.50   219.00   260.50   390.50    U-points
       24     1.00    26.50   390.50   520.50    U-points
       25    26.50    54.50   390.50   520.50    U-points
       26    54.50    82.50   390.50   520.50    U-points
       27    82.50   110.50   390.50   520.50    U-points
       28   110.50   138.50   390.50   520.50    U-points
       29   138.50   166.50   390.50   520.50    U-points
       30   166.50   194.50   390.50   520.50    U-points
       31   194.50   219.00   390.50   520.50    U-points
       32     1.00    26.50   520.50   649.50    U-points
       33    26.50    54.50   520.50   649.50    U-points
       34    54.50    82.50   520.50   649.50    U-points
       35    82.50   110.50   520.50   649.50    U-points
       36   110.50   138.50   520.50   649.50    U-points
       37   138.50   166.50   520.50   649.50    U-points
       38   166.50   194.50   520.50   649.50    U-points
       39   194.50   219.00   520.50   649.50    U-points

        0     0.50    26.50     1.00   130.50    V-points
        1    26.50    54.50     1.00   130.50    V-points
        2    54.50    82.50     1.00   130.50    V-points
        3    82.50   110.50     1.00   130.50    V-points
        4   110.50   138.50     1.00   130.50    V-points
        5   138.50   166.50     1.00   130.50    V-points
        6   166.50   194.50     1.00   130.50    V-points
        7   194.50   219.50     1.00   130.50    V-points
        8     0.50    26.50   130.50   260.50    V-points
        9    26.50    54.50   130.50   260.50    V-points
       10    54.50    82.50   130.50   260.50    V-points
       11    82.50   110.50   130.50   260.50    V-points
       12   110.50   138.50   130.50   260.50    V-points
       13   138.50   166.50   130.50   260.50    V-points
       14   166.50   194.50   130.50   260.50    V-points
       15   194.50   219.50   130.50   260.50    V-points
       16     0.50    26.50   260.50   390.50    V-points
       17    26.50    54.50   260.50   390.50    V-points
       18    54.50    82.50   260.50   390.50    V-points
       19    82.50   110.50   260.50   390.50    V-points
       20   110.50   138.50   260.50   390.50    V-points
       21   138.50   166.50   260.50   390.50    V-points
       22   166.50   194.50   260.50   390.50    V-points
       23   194.50   219.50   260.50   390.50    V-points
       24     0.50    26.50   390.50   520.50    V-points
       25    26.50    54.50   390.50   520.50    V-points
       26    54.50    82.50   390.50   520.50    V-points
       27    82.50   110.50   390.50   520.50    V-points
       28   110.50   138.50   390.50   520.50    V-points
       29   138.50   166.50   390.50   520.50    V-points
       30   166.50   194.50   390.50   520.50    V-points
       31   194.50   219.50   390.50   520.50    V-points
       32     0.50    26.50   520.50   649.00    V-points
       33    26.50    54.50   520.50   649.00    V-points
       34    54.50    82.50   520.50   649.00    V-points
       35    82.50   110.50   520.50   649.00    V-points
       36   110.50   138.50   520.50   649.00    V-points
       37   138.50   166.50   520.50   649.00    V-points
       38   166.50   194.50   520.50   649.00    V-points
       39   194.50   219.50   520.50   649.00    V-points

 Maximum halo size in XI and ETA directions:

               HaloSizeI(1) =     126
               HaloSizeJ(1) =     432
                TileSide(1) =     138
                TileSize(1) =    4968


 Tracer Advection Scheme: NLM
 ========================

 Variable               Grid  Horizontal         Vertical
 ---------              ----  ------------       ------------

 temp                     1   HSIMT              HSIMT

 salt                     1   HSIMT              HSIMT

 Akima4     Fourth-order Akima advection
 Centered2  Second-order centered differences advection
 Centered4  Fourth-order centered differences advection
 HSIMT      Third High-order Spatial Inteporlation at Middle Time Advection with TVD limiter
 MPDATA     Multidimensional Positive Definite Advection Algorithm, recursive method
 Splines    Conservative Parabolic Splines Reconstruction Advection (only vertical; not recommended)
 Split_U3   Split third-order Upstream Advection
 Upstream3  Third-order Upstream-biased Advection (only horizontal)


 Lateral Boundary Conditions: NLM
 ============================

 Variable               Grid  West Edge    South Edge   East Edge    North Edge
 ---------              ----  ----------   ----------   ----------   ----------

 zeta                     1   Chapman Imp  Chapman Imp  Chapman Imp  Chapman Imp

 ubar                     1   Flather      Flather      Flather      Flather

 vbar                     1   Flather      Flather      Flather      Flather

 u                        1   Rad + Nud    Rad + Nud    Rad + Nud    Rad + Nud

 v                        1   Rad + Nud    Rad + Nud    Rad + Nud    Rad + Nud

 temp                     1   Rad + Nud    Rad + Nud    Rad + Nud    Rad + Nud

 salt                     1   Rad + Nud    Rad + Nud    Rad + Nud    Rad + Nud

 tke                      1   Gradient     Gradient     Gradient     Gradient

 Activated C-preprocessing Options:

 BRZ                      Brazil 2014 1/20 rotated 55W-25W - 42S-0N (221x651x30)
 ADD_FSOBC                Adding tidal elevation to processed OBC data
 ADD_M2OBC                Adding tidal currents to processed OBC data
 ANA_BSFLUX               Analytical kinematic bottom salinity flux
 ANA_BTFLUX               Analytical kinematic bottom temperature flux
 ASSUMED_SHAPE            Using assumed-shape arrays
 ATM_PRESS                Impose atmospheric pressure onto sea surface
 AVERAGES                 Writing out time-averaged nonlinear model fields
 !BOUNDARY_ALLGATHER      Using mpi_allreduce in mp_boundary routine
 BULK_FLUXES              Surface bulk fluxes parameterization
 !COLLECT_ALL...          Using mpi_isend/mpi_recv in mp_collect routine
 CURVGRID                 Orthogonal curvilinear grid
 DJ_GRADPS                Parabolic Splines density Jacobian (Shchepetkin, 2002)
 DOUBLE_PRECISION         Double precision arithmetic numerical kernel.
 EMINUSP                  Compute Salt Flux using E-P
 KANTHA_CLAYSON           Kantha and Clayson stability function formulation
 LONGWAVE_OUT             Compute outgoing longwave radiation internally
 MASKING                  Land/Sea masking
 MIX_ISO_TS               Mixing of tracers along isopycnal surfaces
 MIX_GEO_UV               Mixing of momentum along geopotential surfaces
 MPI                      MPI distributed-memory configuration
 MY25_MIXING              Mellor/Yamada Level-2.5 mixing closure
 NONLINEAR                Nonlinear Model
 NONLIN_EOS               Nonlinear Equation of State for seawater
 N2S2_HORAVG              Horizontal smoothing of buoyancy and shear
 PERFECT_RESTART          Processing perfect restart variables
 POWER_LAW                Power-law shape time-averaging barotropic filter
 PROFILE                  Time profiling activated
 K_GSCHEME                Third-order upstream advection of TKE fields
 RADIATION_2D             Use tangential phase speed in radiation conditions
 RAMP_TIDES               Ramping tidal forcing for one day
 REDUCE_ALLREDUCE         Using mpi_allreduce in mp_reduce routine
 !RST_SINGLE              Double precision fields in restart NetCDF file
 SALINITY                 Using salinity
 SOLAR_SOURCE             Solar Radiation Source Term
 SOLVE3D                  Solving 3D Primitive Equations
 SSH_TIDES                Add tidal elevation to SSH climatology
 TS_DIF4                  Biharmonic mixing of tracers
 UV_ADV                   Advection of momentum
 UV_COR                   Coriolis term
 UV_U3HADVECTION          Third-order upstream horizontal advection of 3D momentum
 UV_C4VADVECTION          Fourth-order centered vertical advection of momentum
 UV_QDRAG                 Quadratic bottom stress
 UV_TIDES                 Add tidal currents to 2D momentum climatologies
 UV_VIS2                  Harmonic mixing of momentum
 VAR_RHO_2D               Variable density barotropic mode

 Process Information:

 Node #    0 (pid=   28358) is active.
 Node #    8 (pid=   28367) is active.
 Node #    9 (pid=   28362) is active.
 Node #   10 (pid=   28364) is active.
 Node #   11 (pid=   28365) is active.
 Node #   12 (pid=   28372) is active.
 Node #   13 (pid=   28366) is active.
 Node #   14 (pid=   28368) is active.
 Node #   15 (pid=   28370) is active.
 Node #   16 (pid=   28379) is active.
 Node #   17 (pid=   28369) is active.
 Node #   18 (pid=   28381) is active.
 Node #   19 (pid=   28377) is active.
 Node #   20 (pid=   28389) is active.
 Node #   21 (pid=   28374) is active.
 Node #   22 (pid=   28390) is active.
 Node #   23 (pid=   28383) is active.
 Node #   24 (pid=   28395) is active.
 Node #   25 (pid=   28386) is active.
 Node #   26 (pid=   28400) is active.
 Node #   27 (pid=   28392) is active.
 Node #   28 (pid=   28405) is active.
 Node #   29 (pid=   28396) is active.
 Node #   30 (pid=   28415) is active.
 Node #   31 (pid=   28402) is active.
 Node #   32 (pid=   28419) is active.
 Node #   33 (pid=   28407) is active.
 Node #   34 (pid=   28435) is active.
 Node #   35 (pid=   28412) is active.
 Node #   36 (pid=   28431) is active.
 Node #   37 (pid=   28422) is active.
 Node #   38 (pid=   28443) is active.
 Node #   39 (pid=   28428) is active.
 Node #    1 (pid=   28356) is active.
 Node #    2 (pid=   28355) is active.
 Node #    3 (pid=   28357) is active.
 Node #    4 (pid=   28363) is active.
 Node #    5 (pid=   28359) is active.
 Node #    6 (pid=   28360) is active.
 Node #    7 (pid=   28361) is active.

 INITIAL: Configuring and initializing forward nonlinear model ...
 *******

    GET_GRID    - angle between XI-axis and EAST: angler
                   (Grid = 01, File: /home/ivans/roms/cases/brz/brz0.05r/expts/d-temporary/roms_in/roms_grd.nc)
                   (Min = -6.45771823E-01 Max = -6.45771823E-01)
    GET_GRID    - reciprocal XI-grid spacing: pm
                   (Grid = 01, File: /home/ivans/roms/cases/brz/brz0.05r/expts/d-temporary/roms_in/roms_grd.nc)
                   (Min =  1.81794359E-04 Max =  2.37890783E-04)
    GET_GRID    - reciprocal ETA-grid spacing: pn
                   (Grid = 01, File: /home/ivans/roms/cases/brz/brz0.05r/expts/d-temporary/roms_in/roms_grd.nc)
                   (Min =  1.79892557E-04 Max =  1.79892557E-04)
    GET_GRID    - XI-derivative of inverse metric factor pn: dndx
                   (Grid = 01, File: /home/ivans/roms/cases/brz/brz0.05r/expts/d-temporary/roms_in/roms_grd.nc)
                   (Min =  0.00000000E+00 Max =  0.00000000E+00)
    GET_GRID    - ETA-derivative of inverse metric factor pm: dmde
                   (Grid = 01, File: /home/ivans/roms/cases/brz/brz0.05r/expts/d-temporary/roms_in/roms_grd.nc)
                   (Min =  5.63595586E-01 Max =  2.53142604E+00)
    GET_GRID    - Coriolis parameter at RHO-points: f
                   (Grid = 01, File: /home/ivans/roms/cases/brz/brz0.05r/expts/d-temporary/roms_in/roms_grd.nc)
                   (Min = -9.51702958E-05 Max = -2.09828598E-05)
    GET_GRID    - bathymetry at RHO-points: h
                   (Grid = 01, File: /home/ivans/roms/cases/brz/brz0.05r/expts/d-temporary/roms_in/roms_grd.nc)
                   (Min =  1.00000000E-04 Max =  5.91293176E+03)
    GET_GRID    - x-location of RHO-points: x-rho
                   (Grid = 01, File: /home/ivans/roms/cases/brz/brz0.05r/expts/d-temporary/roms_in/roms_grd.nc)
                   (Min =  0.00000000E+00 Max =  1.19735152E+06)
    GET_GRID    - y-location of RHO-points: y_rho
                   (Grid = 01, File: /home/ivans/roms/cases/brz/brz0.05r/expts/d-temporary/roms_in/roms_grd.nc)
                   (Min =  0.00000000E+00 Max =  3.61326788E+06)
    GET_GRID    - x-location of PSI-points: x_psi
                   (Grid = 01, File: /home/ivans/roms/cases/brz/brz0.05r/expts/d-temporary/roms_in/roms_grd.nc)
                   (Min =  0.00000000E+00 Max =  1.19182978E+06)
    GET_GRID    - y-location of PSI-points: y-psi
                   (Grid = 01, File: /home/ivans/roms/cases/brz/brz0.05r/expts/d-temporary/roms_in/roms_grd.nc)
                   (Min =  0.00000000E+00 Max =  3.60770901E+06)
    GET_GRID    - x-location of U-points: x_u
                   (Grid = 01, File: /home/ivans/roms/cases/brz/brz0.05r/expts/d-temporary/roms_in/roms_grd.nc)
                   (Min =  0.00000000E+00 Max =  1.19191503E+06)
    GET_GRID    - y-location of U-points: y_u
                   (Grid = 01, File: /home/ivans/roms/cases/brz/brz0.05r/expts/d-temporary/roms_in/roms_grd.nc)
                   (Min =  0.00000000E+00 Max =  3.61326788E+06)
    GET_GRID    - x-location of V-points: x_v
                   (Grid = 01, File: /home/ivans/roms/cases/brz/brz0.05r/expts/d-temporary/roms_in/roms_grd.nc)
                   (Min =  0.00000000E+00 Max =  1.04356218E+06)
    GET_GRID    - y-location of V-points: y_v
                   (Grid = 01, File: /home/ivans/roms/cases/brz/brz0.05r/expts/d-temporary/roms_in/roms_grd.nc)
                   (Min =  0.00000000E+00 Max =  3.60770901E+06)
    GET_GRID    - longitude of RHO-points: lon_rho
                   (Grid = 01, File: /home/ivans/roms/cases/brz/brz0.05r/expts/d-temporary/roms_in/roms_grd.nc)
                   (Min = -5.52500000E+01 Max = -2.69065880E+01)
    GET_GRID    - latitude of RHO-points lat_rho
                   (Grid = 01, File: /home/ivans/roms/cases/brz/brz0.05r/expts/d-temporary/roms_in/roms_grd.nc)
                   (Min = -4.08698329E+01 Max = -8.29486504E+00)
    GET_GRID    - longitude of PSI-points: lon_psi
                   (Grid = 01, File: /home/ivans/roms/cases/brz/brz0.05r/expts/d-temporary/roms_in/roms_grd.nc)
                   (Min = -5.52149894E+01 Max = -2.69415986E+01)
    GET_GRID    - latitude of PSI-points lat_psi
                   (Grid = 01, File: /home/ivans/roms/cases/brz/brz0.05r/expts/d-temporary/roms_in/roms_grd.nc)
                   (Min = -4.08348223E+01 Max = -8.32987560E+00)
    GET_GRID    - longitude of U-points: lon_u
                   (Grid = 01, File: /home/ivans/roms/cases/brz/brz0.05r/expts/d-temporary/roms_in/roms_grd.nc)
                   (Min = -5.52300345E+01 Max = -2.69265535E+01)
    GET_GRID    - latitude of U-points: lat_u
                   (Grid = 01, File: /home/ivans/roms/cases/brz/brz0.05r/expts/d-temporary/roms_in/roms_grd.nc)
                   (Min = -4.08547878E+01 Max = -8.30991011E+00)
    GET_GRID    - longitude of V-points: lon_v
                   (Grid = 01, File: /home/ivans/roms/cases/brz/brz0.05r/expts/d-temporary/roms_in/roms_grd.nc)
                   (Min = -5.52349549E+01 Max = -2.69216331E+01)
    GET_GRID    - latitude of V-points: lat_v
                   (Grid = 01, File: /home/ivans/roms/cases/brz/brz0.05r/expts/d-temporary/roms_in/roms_grd.nc)
                   (Min = -5.52349549E+01 Max = -2.69216331E+01)
    GET_GRID    - mask on RHO-points: mask_rho
                   (Grid = 01, File: /home/ivans/roms/cases/brz/brz0.05r/expts/d-temporary/roms_in/roms_grd.nc)
                   (Min =  0.00000000E+00 Max =  1.00000000E+00)
    GET_GRID    - mask on PSI-points: mask_psi
                   (Grid = 01, File: /home/ivans/roms/cases/brz/brz0.05r/expts/d-temporary/roms_in/roms_grd.nc)
                   (Min =  0.00000000E+00 Max =  1.00000000E+00)
    GET_GRID    - mask on U-points: mask_u
                   (Grid = 01, File: /home/ivans/roms/cases/brz/brz0.05r/expts/d-temporary/roms_in/roms_grd.nc)
                   (Min =  0.00000000E+00 Max =  1.00000000E+00)
    GET_GRID    - mask on V-points: mask_v
                   (Grid = 01, File: /home/ivans/roms/cases/brz/brz0.05r/expts/d-temporary/roms_in/roms_grd.nc)
                   (Min =  0.00000000E+00 Max =  1.00000000E+00)

 Vertical S-coordinate System, Grid 01:

 level   S-coord     Cs-curve   Z   at hmin       at hc    half way     at hmax

    30   0.0000000   0.0000000        0.000       0.000       0.000       0.000
    29  -0.0333333  -0.0013778       -0.000      -1.736      -7.164     -11.289
    28  -0.0666667  -0.0055245       -0.000      -3.610     -22.247     -38.679
    27  -0.1000000  -0.0124794       -0.000      -5.624     -45.361     -82.397
    26  -0.1333333  -0.0223067       -0.000      -7.782     -76.688    -142.816
    25  -0.1666667  -0.0350929       -0.000     -10.088    -116.478    -220.441
    24  -0.2000000  -0.0509440       -0.000     -12.547    -165.032    -315.886
    23  -0.2333333  -0.0699806       -0.000     -15.166    -222.696    -429.854
    22  -0.2666667  -0.0923313       -0.000     -17.950    -289.838    -563.093
    21  -0.3000000  -0.1181254       -0.000     -20.906    -366.826    -716.352
    20  -0.3333333  -0.1474817       -0.000     -24.041    -454.002    -890.325
    19  -0.3666667  -0.1804964       -0.000     -27.358    -551.639   -1085.570
    18  -0.4000000  -0.2172277       -0.000     -30.861    -659.905   -1302.426
    17  -0.4333333  -0.2576773       -0.000     -34.551    -778.805   -1540.902
    16  -0.4666667  -0.3017707       -0.000     -38.422    -908.125   -1800.565
    15  -0.5000000  -0.3493346       -0.000     -42.467   -1047.369   -2080.408
    14  -0.5333333  -0.4000748       -0.000     -46.670   -1195.697   -2378.719
    13  -0.5666667  -0.4535548       -0.000     -51.011   -1351.861   -2692.962
    12  -0.6000000  -0.5091798       -0.000     -55.459   -1514.158   -3019.676
    11  -0.6333333  -0.5661872       -0.000     -59.976   -1680.408   -3354.429
    10  -0.6666667  -0.6236508       -0.000     -64.516   -1847.963   -3691.835
     9  -0.7000000  -0.6805007       -0.000     -69.025   -2013.763   -4025.672
     8  -0.7333333  -0.7355642       -0.000     -73.445   -2174.455   -4349.121
     7  -0.7666667  -0.7876295       -0.000     -77.715   -2326.572   -4655.138
     6  -0.8000000  -0.8355308       -0.000     -81.777   -2466.781   -4936.942
     5  -0.8333333  -0.8782487       -0.000     -85.579   -2592.168   -5188.608
     4  -0.8666667  -0.9150149       -0.000     -89.084   -2700.534   -5405.666
     3  -0.9000000  -0.9454027       -0.000     -92.270   -2790.659   -5585.637
     2  -0.9333333  -0.9693849       -0.000     -95.136   -2862.466   -5728.362
     1  -0.9666667  -0.9873406       -0.000     -97.700   -2917.039   -5836.044
     0  -1.0000000  -1.0000000       -0.000    -100.000   -2956.466   -5912.932

 Time Splitting Weights for Grid 01:    ndtfast =  30    nfast =  42
 ==================================

    Primary            Secondary            Accumulated to Current Step

  1-0.0008094437383769 0.0333333333333333-0.0008094437383769 0.0333333333333333
  2-0.0014053566728197 0.0333603147912792-0.0022148004111966 0.0666936481246126
  3-0.0017877524645903 0.0334071600137066-0.0040025528757869 0.1001008081383191
  4-0.0019566842408176 0.0334667517625262-0.0059592371166046 0.1335675599008453
  5-0.0019122901320372 0.0335319745705535-0.0078715272486418 0.1670995344713988
  6-0.0016548570247459 0.0335957175749547-0.0095263842733877 0.2006952520463536
  7-0.0011849025289723 0.0336508794757796-0.0107112868023600 0.2343461315221331
  8-0.0005032751608631 0.0336903762267453-0.0112145619632232 0.2680365077488784
  9 0.0003887272597151 0.0337071520654408-0.0108258347035081 0.3017436598143192
 10 0.0014892209965583 0.0336941944901169-0.0093366137069498 0.3354378543044362
 11 0.0027955815694920 0.0336445537902317-0.0065410321374578 0.3690824080946679
 12 0.0043042707117221 0.0335513677379153-0.0022367614257357 0.4026337758325831
 13 0.0060106451121704 0.0334078920475245 0.0037738836864347 0.4360416678801076
 14 0.0079087469427945 0.0332075372104522 0.0116826306292293 0.4692492050905598
 15 0.0099910761708920 0.0329439123123590 0.0216737068001212 0.5021931174029188
 16 0.0122483446563884 0.0326108764399960 0.0339220514565096 0.5348039938429148
 17 0.0146692120341107 0.0322025982847830 0.0485912634906203 0.5670065921276978
 18 0.0172400033810439 0.0317136245503127 0.0658312668716642 0.5987202166780105
 19 0.0199444086685725 0.0311389577709445 0.0857756755402367 0.6298591744489550
 20 0.0227631639997064 0.0304741441486588 0.1085388395399431 0.6603333185976138
 21 0.0256737146312910 0.0297153720153352 0.1342125541712341 0.6900486906129490
 22 0.0286498597812016 0.0288595815276255 0.1628624139524357 0.7189082721405746
 23 0.0316613792205220 0.0279045862015855 0.1945237931729577 0.7468128583421600
 24 0.0346736416507075 0.0268492068942347 0.2291974348236651 0.7736620652363948
 25 0.0376471948657328 0.0256934188392112 0.2668446296893979 0.7993554840756060
 26 0.0405373376992232 0.0244385123436867 0.3073819673886211 0.8237939964192927
 27 0.0432936737565711 0.0230872677537126 0.3506756411451922 0.8468812641730054
 28 0.0458596469320356 0.0216441452951603 0.3965352880772278 0.8685254094681656
 29 0.0481720587108284 0.0201154903974257 0.4447073467880562 0.8886408998655914
 30 0.0501605672561820 0.0185097551070648 0.4948679140442381 0.9071506549726561
 31 0.0517471682814030 0.0168377361985254 0.5466150823256412 0.9239883911711815
 32 0.0528456577069106 0.0151128305891453 0.5994607400325517 0.9391012217603267
 33 0.0533610761022577 0.0133513086655816 0.6528218161348094 0.9524525304259084
 34 0.0531891349131379 0.0115726061288397 0.7060109510479473 0.9640251365547481
 35 0.0522156244733761 0.0097996349650684 0.7582265755213234 0.9738247715198165
 36 0.0503158038019031 0.0080591141492892 0.8085423793232265 0.9818838856691057
 37 0.0473537721847153 0.0063819206892258 0.8558961515079418 0.9882658063583315
 38 0.0431818225418188 0.0048034616164019 0.8990779740497606 0.9930692679747335
 39 0.0376397765791564 0.0033640675316746 0.9367177506289170 0.9964333355064081
 40 0.0305543017255206 0.0021094083123694 0.9672720523544377 0.9985427438187775
 41 0.0217382098544505 0.0010909315881854 0.9890102622088881 0.9996336754069629
 42 0.0109897377911119 0.0003663245930371 1.0000000000000000 1.0000000000000000

 ndtfast, nfast =   30  42   nfast/ndtfast =  1.40000

 Centers of gravity and integrals (values must be 1, 1, approx 1/2, 1, 1):

    1.000000000000 1.047601458608 0.523800729304 1.000000000000 1.000000000000

 Power filter parameters, Fgamma, gamma =  0.28400   0.18933

 Metrics information for Grid 01:
 ===============================

 Minimum X-grid spacing, DXmin =  4.20360968E+00 km    Water points =  4.20360968E+00 km
 Maximum X-grid spacing, DXmax =  5.50072075E+00 km    Water points =  5.49378792E+00 km
 Minimum Y-grid spacing, DYmin =  5.55887367E+00 km    Water points =  5.55887367E+00 km
 Maximum Y-grid spacing, DYmax =  5.55887367E+00 km    Water points =  5.55887367E+00 km
 Minimum Z-grid spacing, DZmin =  3.33333014E-06 m     Water points =  3.04560719E-01 m
 Maximum Z-grid spacing, DZmax =  3.37405408E+02 m     Water points =  3.37405408E+02 m

 Minimum barotropic Courant Number =  1.01451797E-02
 Maximum barotropic Courant Number =  2.70428575E-01
 Maximum Coriolis   Courant Number =  1.14204355E-02


   GET_NUDGCOEF - 3D momentum inverse nudging coefficients: M3_NudgeCoef
                   (Grid = 01, File: /home/ivans/roms/cases/brz/brz0.05r/expts/d-temporary/roms_in/roms_nud.nc)
                   (Min =  5.78703704E-07 Max =  1.15740741E-05)
   GET_NUDGCOEF - potential temperature, inverse nudging coefficients: temp_NudgeCoef
                   (Grid = 01, File: /home/ivans/roms/cases/brz/brz0.05r/expts/d-temporary/roms_in/roms_nud.nc)
                   (Min =  5.78703704E-07 Max =  1.15740741E-05)
   GET_NUDGCOEF - salinity, inverse nudging coefficients: salt_NudgeCoef
                   (Grid = 01, File: /home/ivans/roms/cases/brz/brz0.05r/expts/d-temporary/roms_in/roms_nud.nc)
                   (Min =  5.78703704E-07 Max =  1.15740741E-05)

 NLM: GET_STATE - Reading state initial conditions,                       2014-01-01 00:00:00.00
                   (Grid 01, t = 5114.0000, File: roms_ini.nc, Rec=0001, Index=1)
                - free-surface
                   (Min = -4.02539134E-01 Max =  7.11081266E-01)
                - vertically integrated u-momentum component
                   (Min = -5.83918452E-01 Max =  4.83555913E-01)
                - vertically integrated v-momentum component
                   (Min = -3.07677180E-01 Max =  5.23895025E-01)
                - u-momentum component
                   (Min = -8.49865437E-01 Max =  9.68092680E-01)
                - v-momentum component
                   (Min = -1.00295889E+00 Max =  9.24374700E-01)
                - potential temperature
                   (Min = -2.36488342E-01 Max =  2.89931641E+01)
                - salinity
                   (Min =  0.00000000E+00 Max =  3.78643150E+01)
    GET_NGFLD   - tidal period
                   (Grid = 01, Min =  2.19720214E+04 Max =  9.67260838E+04)
    GET_2DFLD   - tidal elevation amplitude
                   (Grid = 01, Min =  0.00000000E+00 Max =  1.08468619E+00)
    GET_2DFLD   - tidal elevation phase angle
                   (Grid = 01, Min =  5.08491347E-04 Max =  6.28309093E+00)
    GET_2DFLD   - tidal current inclination angle
                   (Grid = 01, Min =  0.00000000E+00 Max =  6.28318531E+00)
    GET_2DFLD   - tidal current phase angle
                   (Grid = 01, Min =  0.00000000E+00 Max =  6.28318478E+00)
    GET_2DFLD   - maximum tidal current, ellipse major axis
                   (Grid = 01, Min =  0.00000000E+00 Max =  2.15099390E+00)
    GET_2DFLD   - minimum tidal current, ellipse minor axis
                   (Grid = 01, Min = -2.48626499E-01 Max =  2.99141227E-01)
    GET_2DFLD   - surface u-wind component,                        2014-01-01 00:00:00.00
                   (Grid=01, Rec=1, Index=1, File: u_era2014b.nc)
                   (Tmin=       5114.0000 Tmax=       5479.9583)      t =       5114.0000
                   (Min = -8.20034833E+00 Max =  7.31415637E+00)      regrid = T
    GET_2DFLD   - surface v-wind component,                        2014-01-01 00:00:00.00
                   (Grid=01, Rec=1, Index=1, File: v_era2014b.nc)
                   (Tmin=       5114.0000 Tmax=       5479.9583)      t =       5114.0000
                   (Min = -1.06172909E+01 Max =  8.00347854E+00)      regrid = T
    GET_2DFLD   - surface air pressure,                            2014-01-01 00:00:00.00
                   (Grid=01, Rec=1, Index=1, File: pressure_era2014b.nc)
                   (Tmin=       5114.0000 Tmax=       5479.9583)      t =       5114.0000
                   (Min =  8.63431509E+02 Max =  1.01691657E+03)      regrid = T
    GET_2DFLD   - solar shortwave radiation flux,                  2014-01-01 00:00:00.00
                   (Grid=01, Rec=1, Index=1, File: srad_era2014b.nc)
                   (Tmin=       5114.0000 Tmax=       5479.9583)      t =       5114.0000
                   (Min =  0.00000000E+00 Max =  0.00000000E+00)      regrid = T
    GET_2DFLD   - downwelling longwave radiation flux,             2014-01-01 00:00:00.00
                   (Grid=01, Rec=1, Index=1, File: lwrad_era2014b.nc)
                   (Tmin=       5114.0000 Tmax=       5479.9583)      t =       5114.0000
                   (Min =  7.53217125E-05 Max =  1.08744648E-04)      regrid = T
    GET_2DFLD   - surface air temperature,                         2014-01-01 00:00:00.00
                   (Grid=01, Rec=1, Index=1, File: temp_era2014b.nc)
                   (Tmin=       5114.0000 Tmax=       5479.9583)      t =       5114.0000
                   (Min =  1.66667168E+01 Max =  3.18197231E+01)      regrid = T
    GET_2DFLD   - surface air relative humidity,                   2014-01-01 00:00:00.00
                   (Grid=01, Rec=1, Index=1, File: humi_era2014b.nc)
                   (Tmin=       5114.0000 Tmax=       5479.9583)      t =       5114.0000
                   (Min =  4.39317937E-01 Max =  9.99451172E-01)      regrid = T
    GET_2DFLD   - rain fall rate,                                  2014-01-01 00:00:00.00
                   (Grid=01, Rec=1, Index=1, File: rain_era2014b.nc)
                   (Tmin=       5114.0000 Tmax=       5479.9583)      t =       5114.0000
                   (Min =  0.00000000E+00 Max =  9.63409234E-04)      regrid = T
    GET_NGFLD   - free-surface western boundary condition,         2014-01-01 00:00:00.00
                   (Grid= 01, Rec=1, Index=2, File: roms_bry.nc)
                   (Tmin=       5114.0000 Tmax=       5479.5000)      t =       5114.0000
                   (Min =  0.00000000E+00 Max =  0.00000000E+00)
    GET_NGFLD   - free-surface eastern boundary condition,         2014-01-01 00:00:00.00
                   (Grid= 01, Rec=1, Index=2, File: roms_bry.nc)
                   (Tmin=       5114.0000 Tmax=       5479.5000)      t =       5114.0000
                   (Min = -4.02539134E-01 Max =  6.04266465E-01)
    GET_NGFLD   - free-surface southern boundary condition,        2014-01-01 00:00:00.00
                   (Grid= 01, Rec=1, Index=2, File: roms_bry.nc)
                   (Tmin=       5114.0000 Tmax=       5479.5000)      t =       5114.0000
                   (Min = -1.64189577E-01 Max =  3.98876905E-01)
    GET_NGFLD   - free-surface northern boundary condition,        2014-01-01 00:00:00.00
                   (Grid= 01, Rec=1, Index=2, File: roms_bry.nc)
                   (Tmin=       5114.0000 Tmax=       5479.5000)      t =       5114.0000
                   (Min =  0.00000000E+00 Max =  1.99591056E-01)
    GET_NGFLD   - 2D u-momentum western boundary condition,        2014-01-01 00:00:00.00
                   (Grid= 01, Rec=1, Index=2, File: roms_bry.nc)
                   (Tmin=       5114.0000 Tmax=       5479.5000)      t =       5114.0000
                   (Min =  0.00000000E+00 Max =  0.00000000E+00)
    GET_NGFLD   - 2D v-momentum western boundary condition,        2014-01-01 00:00:00.00
                   (Grid= 01, Rec=1, Index=2, File: roms_bry.nc)
                   (Tmin=       5114.0000 Tmax=       5479.5000)      t =       5114.0000
                   (Min =  0.00000000E+00 Max =  0.00000000E+00)
    GET_NGFLD   - 2D u-momentum eastern boundary condition,        2014-01-01 00:00:00.00
                   (Grid= 01, Rec=1, Index=2, File: roms_bry.nc)
                   (Tmin=       5114.0000 Tmax=       5479.5000)      t =       5114.0000
                   (Min = -3.81033570E-01 Max =  1.29101217E-01)
    GET_NGFLD   - 2D v-momentum eastern boundary condition,        2014-01-01 00:00:00.00
                   (Grid= 01, Rec=1, Index=2, File: roms_bry.nc)
                   (Tmin=       5114.0000 Tmax=       5479.5000)      t =       5114.0000
                   (Min = -2.05371618E-01 Max =  3.57273787E-01)
    GET_NGFLD   - 2D u-momentum southern boundary condition,       2014-01-01 00:00:00.00
                   (Grid= 01, Rec=1, Index=2, File: roms_bry.nc)
                   (Tmin=       5114.0000 Tmax=       5479.5000)      t =       5114.0000
                   (Min = -2.09052116E-01 Max =  1.77986875E-01)
    GET_NGFLD   - 2D v-momentum southern boundary condition,       2014-01-01 00:00:00.00
                   (Grid= 01, Rec=1, Index=2, File: roms_bry.nc)
                   (Tmin=       5114.0000 Tmax=       5479.5000)      t =       5114.0000
                   (Min = -2.28289366E-01 Max =  1.80218309E-01)
    GET_NGFLD   - 2D u-momentum northern boundary condition,       2014-01-01 00:00:00.00
                   (Grid= 01, Rec=1, Index=2, File: roms_bry.nc)
                   (Tmin=       5114.0000 Tmax=       5479.5000)      t =       5114.0000
                   (Min = -4.50634301E-01 Max =  2.92831600E-01)
    GET_NGFLD   - 2D v-momentum northern boundary condition,       2014-01-01 00:00:00.00
                   (Grid= 01, Rec=1, Index=2, File: roms_bry.nc)
                   (Tmin=       5114.0000 Tmax=       5479.5000)      t =       5114.0000
                   (Min = -2.75022745E-01 Max =  1.54507548E-01)
    GET_NGFLD   - 3D u-momentum western boundary condition,        2014-01-01 00:00:00.00
                   (Grid= 01, Rec=1, Index=2, File: roms_bry.nc)
                   (Tmin=       5114.0000 Tmax=       5479.5000)      t =       5114.0000
                   (Min =  0.00000000E+00 Max =  0.00000000E+00)
    GET_NGFLD   - 3D v-momentum western boundary condition,        2014-01-01 00:00:00.00
                   (Grid= 01, Rec=1, Index=2, File: roms_bry.nc)
                   (Tmin=       5114.0000 Tmax=       5479.5000)      t =       5114.0000
                   (Min =  0.00000000E+00 Max =  0.00000000E+00)
    GET_NGFLD   - 3D u-momentum eastern boundary condition,        2014-01-01 00:00:00.00
                   (Grid= 01, Rec=1, Index=2, File: roms_bry.nc)
                   (Tmin=       5114.0000 Tmax=       5479.5000)      t =       5114.0000
                   (Min = -3.05663675E-01 Max =  8.07353675E-01)
    GET_NGFLD   - 3D v-momentum eastern boundary condition,        2014-01-01 00:00:00.00
                   (Grid= 01, Rec=1, Index=2, File: roms_bry.nc)
                   (Tmin=       5114.0000 Tmax=       5479.5000)      t =       5114.0000
                   (Min = -9.73012149E-01 Max =  4.94217247E-01)
    GET_NGFLD   - 3D u-momentum southern boundary condition,       2014-01-01 00:00:00.00
                   (Grid= 01, Rec=1, Index=2, File: roms_bry.nc)
                   (Tmin=       5114.0000 Tmax=       5479.5000)      t =       5114.0000
                   (Min = -3.16056222E-01 Max =  8.76530647E-01)
    GET_NGFLD   - 3D v-momentum southern boundary condition,       2014-01-01 00:00:00.00
                   (Grid= 01, Rec=1, Index=2, File: roms_bry.nc)
                   (Tmin=       5114.0000 Tmax=       5479.5000)      t =       5114.0000
                   (Min = -5.68428040E-01 Max =  7.97797084E-01)
    GET_NGFLD   - 3D u-momentum northern boundary condition,       2014-01-01 00:00:00.00
                   (Grid= 01, Rec=1, Index=2, File: roms_bry.nc)
                   (Tmin=       5114.0000 Tmax=       5479.5000)      t =       5114.0000
                   (Min = -4.04778063E-01 Max =  9.08222318E-01)
    GET_NGFLD   - 3D v-momentum northern boundary condition,       2014-01-01 00:00:00.00
                   (Grid= 01, Rec=1, Index=2, File: roms_bry.nc)
                   (Tmin=       5114.0000 Tmax=       5479.5000)      t =       5114.0000
                   (Min = -2.20480174E-01 Max =  5.68978429E-01)
    GET_NGFLD   - temperature western boundary condition,          2014-01-01 00:00:00.00
                   (Grid= 01, Rec=1, Index=2, File: roms_bry.nc)
                   (Tmin=       5114.0000 Tmax=       5479.5000)      t =       5114.0000
                   (Min =  0.00000000E+00 Max =  0.00000000E+00)
    GET_NGFLD   - salinity western boundary condition,             2014-01-01 00:00:00.00
                   (Grid= 01, Rec=1, Index=2, File: roms_bry.nc)
                   (Tmin=       5114.0000 Tmax=       5479.5000)      t =       5114.0000
                   (Min =  0.00000000E+00 Max =  0.00000000E+00)
    GET_NGFLD   - temperature eastern boundary condition,          2014-01-01 00:00:00.00
                   (Grid= 01, Rec=1, Index=2, File: roms_bry.nc)
                   (Tmin=       5114.0000 Tmax=       5479.5000)      t =       5114.0000
                   (Min = -1.85949326E-01 Max =  2.64398632E+01)
    GET_NGFLD   - salinity eastern boundary condition,             2014-01-01 00:00:00.00
                   (Grid= 01, Rec=1, Index=2, File: roms_bry.nc)
                   (Tmin=       5114.0000 Tmax=       5479.5000)      t =       5114.0000
                   (Min =  3.39197960E+01 Max =  3.76293221E+01)
    GET_NGFLD   - temperature southern boundary condition,         2014-01-01 00:00:00.00
                   (Grid= 01, Rec=1, Index=2, File: roms_bry.nc)
                   (Tmin=       5114.0000 Tmax=       5479.5000)      t =       5114.0000
                   (Min = -2.36488342E-01 Max =  2.40865192E+01)
    GET_NGFLD   - salinity southern boundary condition,            2014-01-01 00:00:00.00
                   (Grid= 01, Rec=1, Index=2, File: roms_bry.nc)
                   (Tmin=       5114.0000 Tmax=       5479.5000)      t =       5114.0000
                   (Min =  0.00000000E+00 Max =  3.64955597E+01)
    GET_NGFLD   - temperature northern boundary condition,         2014-01-01 00:00:00.00
                   (Grid= 01, Rec=1, Index=2, File: roms_bry.nc)
                   (Tmin=       5114.0000 Tmax=       5479.5000)      t =       5114.0000
                   (Min =  0.00000000E+00 Max =  2.79714050E+01)
    GET_NGFLD   - salinity northern boundary condition,            2014-01-01 00:00:00.00
                   (Grid= 01, Rec=1, Index=2, File: roms_bry.nc)
                   (Tmin=       5114.0000 Tmax=       5479.5000)      t =       5114.0000
                   (Min =  0.00000000E+00 Max =  3.74019585E+01)
    GET_3DFLD   - u-momentum component climatology,                2014-01-01 00:00:00.00
                   (Grid=01, Rec=1, Index=1, File: roms_clm.nc)
                   (Tmin=       5114.0000 Tmax=       5479.5000)      t =       5114.0000
                   (Min = -8.49865437E-01 Max =  9.68092680E-01)
    GET_3DFLD   - v-momentum component climatology,                2014-01-01 00:00:00.00
                   (Grid=01, Rec=1, Index=1, File: roms_clm.nc)
                   (Tmin=       5114.0000 Tmax=       5479.5000)      t =       5114.0000
                   (Min = -1.00295889E+00 Max =  9.24374700E-01)
    GET_3DFLD   - potential temperature climatology,               2014-01-01 00:00:00.00
                   (Grid=01, Rec=1, Index=1, File: roms_clm.nc)
                   (Tmin=       5114.0000 Tmax=       5479.5000)      t =       5114.0000
                   (Min = -2.36488342E-01 Max =  2.89931641E+01)
    GET_3DFLD   - salinity climatology,                            2014-01-01 00:00:00.00
                   (Grid=01, Rec=1, Index=1, File: roms_clm.nc)
                   (Tmin=       5114.0000 Tmax=       5479.5000)      t =       5114.0000
                   (Min =  0.00000000E+00 Max =  3.78643150E+01)

 Basin information for Grid 01:

 Maximum grid stiffness ratios:  rx0 =   7.350398E-01 (Beckmann and Haidvogel)
                                 rx1 =   8.231168E+01 (Haney)

 Initial domain volumes:  TotVolume =  1.1348410289E+16 m3
                         MinCellVol =  7.7297512665E+06 m3
                         MaxCellVol =  1.0057984573E+10 m3
                            Max/Min =  1.3012041690E+03


 NL ROMS/TOMS: started time-stepping: (Grid: 01 TimeSteps: 000000000001 - 000000000720)

    GET_2DFLD   - surface u-wind component,                        2014-01-01 01:00:00.00
                   (Grid=01, Rec=2, Index=2, File: u_era2014b.nc)
                   (Tmin=       5114.0000 Tmax=       5479.9583)      t =       5114.0417
                   (Min = -8.45238856E+00 Max =  6.63297689E+00)      regrid = T
    GET_2DFLD   - surface v-wind component,                        2014-01-01 01:00:00.00
                   (Grid=01, Rec=2, Index=2, File: v_era2014b.nc)
                   (Tmin=       5114.0000 Tmax=       5479.9583)      t =       5114.0417
                   (Min = -1.04130253E+01 Max =  8.07246541E+00)      regrid = T
    GET_2DFLD   - surface air pressure,                            2014-01-01 01:00:00.00
                   (Grid=01, Rec=2, Index=2, File: pressure_era2014b.nc)
                   (Tmin=       5114.0000 Tmax=       5479.9583)      t =       5114.0417
                   (Min =  8.63570104E+02 Max =  1.01664756E+03)      regrid = T
    GET_2DFLD   - solar shortwave radiation flux,                  2014-01-01 01:00:00.00
                   (Grid=01, Rec=2, Index=2, File: srad_era2014b.nc)
                   (Tmin=       5114.0000 Tmax=       5479.9583)      t =       5114.0417
                   (Min =  0.00000000E+00 Max =  0.00000000E+00)      regrid = T
    GET_2DFLD   - downwelling longwave radiation flux,             2014-01-01 01:00:00.00
                   (Grid=01, Rec=2, Index=2, File: lwrad_era2014b.nc)
                   (Tmin=       5114.0000 Tmax=       5479.9583)      t =       5114.0417
                   (Min =  7.54883562E-05 Max =  1.08585882E-04)      regrid = T
    GET_2DFLD   - surface air temperature,                         2014-01-01 01:00:00.00
                   (Grid=01, Rec=2, Index=2, File: temp_era2014b.nc)
                   (Tmin=       5114.0000 Tmax=       5479.9583)      t =       5114.0417
                   (Min =  1.65604034E+01 Max =  3.17630919E+01)      regrid = T
    GET_2DFLD   - surface air relative humidity,                   2014-01-01 01:00:00.00
                   (Grid=01, Rec=2, Index=2, File: humi_era2014b.nc)
                   (Tmin=       5114.0000 Tmax=       5479.9583)      t =       5114.0417
                   (Min =  4.39183754E-01 Max =  9.98465442E-01)      regrid = T
    GET_2DFLD   - rain fall rate,                                  2014-01-01 01:00:00.00
                   (Grid=01, Rec=2, Index=2, File: rain_era2014b.nc)
                   (Tmin=       5114.0000 Tmax=       5479.9583)      t =       5114.0417
                   (Min =  0.00000000E+00 Max =  7.28591521E-04)      regrid = T
    GET_NGFLD   - free-surface western boundary condition,         2014-01-02 12:00:00.00
                   (Grid= 01, Rec=2, Index=1, File: roms_bry.nc)
                   (Tmin=       5114.0000 Tmax=       5479.5000)      t =       5115.5000
                   (Min =  0.00000000E+00 Max =  0.00000000E+00)
    GET_NGFLD   - free-surface eastern boundary condition,         2014-01-02 12:00:00.00
                   (Grid= 01, Rec=2, Index=1, File: roms_bry.nc)
                   (Tmin=       5114.0000 Tmax=       5479.5000)      t =       5115.5000
                   (Min = -4.09253210E-01 Max =  5.91753900E-01)
    GET_NGFLD   - free-surface southern boundary condition,        2014-01-02 12:00:00.00
                   (Grid= 01, Rec=2, Index=1, File: roms_bry.nc)
                   (Tmin=       5114.0000 Tmax=       5479.5000)      t =       5115.5000
                   (Min = -1.89214766E-01 Max =  4.20239866E-01)
    GET_NGFLD   - free-surface northern boundary condition,        2014-01-02 12:00:00.00
                   (Grid= 01, Rec=2, Index=1, File: roms_bry.nc)
                   (Tmin=       5114.0000 Tmax=       5479.5000)      t =       5115.5000
                   (Min =  0.00000000E+00 Max =  1.96234018E-01)
    GET_NGFLD   - 2D u-momentum western boundary condition,        2014-01-02 12:00:00.00
                   (Grid= 01, Rec=2, Index=1, File: roms_bry.nc)
                   (Tmin=       5114.0000 Tmax=       5479.5000)      t =       5115.5000
                   (Min =  0.00000000E+00 Max =  0.00000000E+00)
    GET_NGFLD   - 2D v-momentum western boundary condition,        2014-01-02 12:00:00.00
                   (Grid= 01, Rec=2, Index=1, File: roms_bry.nc)
                   (Tmin=       5114.0000 Tmax=       5479.5000)      t =       5115.5000
                   (Min =  0.00000000E+00 Max =  0.00000000E+00)
    GET_NGFLD   - 2D u-momentum eastern boundary condition,        2014-01-02 12:00:00.00
                   (Grid= 01, Rec=2, Index=1, File: roms_bry.nc)
                   (Tmin=       5114.0000 Tmax=       5479.5000)      t =       5115.5000
                   (Min = -3.58304501E-01 Max =  1.28268376E-01)
    GET_NGFLD   - 2D v-momentum eastern boundary condition,        2014-01-02 12:00:00.00
                   (Grid= 01, Rec=2, Index=1, File: roms_bry.nc)
                   (Tmin=       5114.0000 Tmax=       5479.5000)      t =       5115.5000
                   (Min = -2.02089503E-01 Max =  3.64665031E-01)
    GET_NGFLD   - 2D u-momentum southern boundary condition,       2014-01-02 12:00:00.00
                   (Grid= 01, Rec=2, Index=1, File: roms_bry.nc)
                   (Tmin=       5114.0000 Tmax=       5479.5000)      t =       5115.5000
                   (Min = -2.17654794E-01 Max =  1.70341268E-01)
    GET_NGFLD   - 2D v-momentum southern boundary condition,       2014-01-02 12:00:00.00
                   (Grid= 01, Rec=2, Index=1, File: roms_bry.nc)
                   (Tmin=       5114.0000 Tmax=       5479.5000)      t =       5115.5000
                   (Min = -2.11628616E-01 Max =  1.70818672E-01)
    GET_NGFLD   - 2D u-momentum northern boundary condition,       2014-01-02 12:00:00.00
                   (Grid= 01, Rec=2, Index=1, File: roms_bry.nc)
                   (Tmin=       5114.0000 Tmax=       5479.5000)      t =       5115.5000
                   (Min = -4.53851432E-01 Max =  2.90825069E-01)
    GET_NGFLD   - 2D v-momentum northern boundary condition,       2014-01-02 12:00:00.00
                   (Grid= 01, Rec=2, Index=1, File: roms_bry.nc)
                   (Tmin=       5114.0000 Tmax=       5479.5000)      t =       5115.5000
                   (Min = -2.76450932E-01 Max =  1.56986073E-01)
    GET_NGFLD   - 3D u-momentum western boundary condition,        2014-01-02 12:00:00.00
                   (Grid= 01, Rec=2, Index=1, File: roms_bry.nc)
                   (Tmin=       5114.0000 Tmax=       5479.5000)      t =       5115.5000
                   (Min =  0.00000000E+00 Max =  0.00000000E+00)
    GET_NGFLD   - 3D v-momentum western boundary condition,        2014-01-02 12:00:00.00
                   (Grid= 01, Rec=2, Index=1, File: roms_bry.nc)
                   (Tmin=       5114.0000 Tmax=       5479.5000)      t =       5115.5000
                   (Min =  0.00000000E+00 Max =  0.00000000E+00)
    GET_NGFLD   - 3D u-momentum eastern boundary condition,        2014-01-02 12:00:00.00
                   (Grid= 01, Rec=2, Index=1, File: roms_bry.nc)
                   (Tmin=       5114.0000 Tmax=       5479.5000)      t =       5115.5000
                   (Min = -3.13252807E-01 Max =  8.02829146E-01)
    GET_NGFLD   - 3D v-momentum eastern boundary condition,        2014-01-02 12:00:00.00
                   (Grid= 01, Rec=2, Index=1, File: roms_bry.nc)
                   (Tmin=       5114.0000 Tmax=       5479.5000)      t =       5115.5000
                   (Min = -1.11767793E+00 Max =  4.40136552E-01)
    GET_NGFLD   - 3D u-momentum southern boundary condition,       2014-01-02 12:00:00.00
                   (Grid= 01, Rec=2, Index=1, File: roms_bry.nc)
                   (Tmin=       5114.0000 Tmax=       5479.5000)      t =       5115.5000
                   (Min = -4.40806419E-01 Max =  8.86230230E-01)
    GET_NGFLD   - 3D v-momentum southern boundary condition,       2014-01-02 12:00:00.00
                   (Grid= 01, Rec=2, Index=1, File: roms_bry.nc)
                   (Tmin=       5114.0000 Tmax=       5479.5000)      t =       5115.5000
                   (Min = -6.64796710E-01 Max =  7.63240337E-01)
    GET_NGFLD   - 3D u-momentum northern boundary condition,       2014-01-02 12:00:00.00
                   (Grid= 01, Rec=2, Index=1, File: roms_bry.nc)
                   (Tmin=       5114.0000 Tmax=       5479.5000)      t =       5115.5000
                   (Min = -4.13096130E-01 Max =  9.20951784E-01)
    GET_NGFLD   - 3D v-momentum northern boundary condition,       2014-01-02 12:00:00.00
                   (Grid= 01, Rec=2, Index=1, File: roms_bry.nc)
                   (Tmin=       5114.0000 Tmax=       5479.5000)      t =       5115.5000
                   (Min = -2.24764541E-01 Max =  5.59802055E-01)
    GET_NGFLD   - temperature western boundary condition,          2014-01-02 12:00:00.00
                   (Grid= 01, Rec=2, Index=1, File: roms_bry.nc)
                   (Tmin=       5114.0000 Tmax=       5479.5000)      t =       5115.5000
                   (Min =  0.00000000E+00 Max =  0.00000000E+00)
    GET_NGFLD   - salinity western boundary condition,             2014-01-02 12:00:00.00
                   (Grid= 01, Rec=2, Index=1, File: roms_bry.nc)
                   (Tmin=       5114.0000 Tmax=       5479.5000)      t =       5115.5000
                   (Min =  0.00000000E+00 Max =  0.00000000E+00)
    GET_NGFLD   - temperature eastern boundary condition,          2014-01-02 12:00:00.00
                   (Grid= 01, Rec=2, Index=1, File: roms_bry.nc)
                   (Tmin=       5114.0000 Tmax=       5479.5000)      t =       5115.5000
                   (Min = -1.94738388E-01 Max =  2.65262909E+01)
    GET_NGFLD   - salinity eastern boundary condition,             2014-01-02 12:00:00.00
                   (Grid= 01, Rec=2, Index=1, File: roms_bry.nc)
                   (Tmin=       5114.0000 Tmax=       5479.5000)      t =       5115.5000
                   (Min =  3.39289513E+01 Max =  3.76308479E+01)
    GET_NGFLD   - temperature southern boundary condition,         2014-01-02 12:00:00.00
                   (Grid= 01, Rec=2, Index=1, File: roms_bry.nc)
                   (Tmin=       5114.0000 Tmax=       5479.5000)      t =       5115.5000
                   (Min = -2.28431702E-01 Max =  2.41663570E+01)
    GET_NGFLD   - salinity southern boundary condition,            2014-01-02 12:00:00.00
                   (Grid= 01, Rec=2, Index=1, File: roms_bry.nc)
                   (Tmin=       5114.0000 Tmax=       5479.5000)      t =       5115.5000
                   (Min =  0.00000000E+00 Max =  3.65520172E+01)
    GET_NGFLD   - temperature northern boundary condition,         2014-01-02 12:00:00.00
                   (Grid= 01, Rec=2, Index=1, File: roms_bry.nc)
                   (Tmin=       5114.0000 Tmax=       5479.5000)      t =       5115.5000
                   (Min =  0.00000000E+00 Max =  2.80014343E+01)
    GET_NGFLD   - salinity northern boundary condition,            2014-01-02 12:00:00.00
                   (Grid= 01, Rec=2, Index=1, File: roms_bry.nc)
                   (Tmin=       5114.0000 Tmax=       5479.5000)      t =       5115.5000
                   (Min =  0.00000000E+00 Max =  3.73958549E+01)
    GET_3DFLD   - u-momentum component climatology,                2014-01-02 12:00:00.00
                   (Grid=01, Rec=2, Index=2, File: roms_clm.nc)
                   (Tmin=       5114.0000 Tmax=       5479.5000)      t =       5115.5000
                   (Min = -8.18947375E-01 Max =  9.83533323E-01)
    GET_3DFLD   - v-momentum component climatology,                2014-01-02 12:00:00.00
                   (Grid=01, Rec=2, Index=2, File: roms_clm.nc)
                   (Tmin=       5114.0000 Tmax=       5479.5000)      t =       5115.5000
                   (Min = -1.12877274E+00 Max =  8.68602931E-01)
    GET_3DFLD   - potential temperature climatology,               2014-01-02 12:00:00.00
                   (Grid=01, Rec=2, Index=2, File: roms_clm.nc)
                   (Tmin=       5114.0000 Tmax=       5479.5000)      t =       5115.5000
                   (Min = -2.28431702E-01 Max =  2.91088905E+01)
    GET_3DFLD   - salinity climatology,                            2014-01-02 12:00:00.00
                   (Grid=01, Rec=2, Index=2, File: roms_clm.nc)
                   (Tmin=       5114.0000 Tmax=       5479.5000)      t =       5115.5000
                   (Min =  0.00000000E+00 Max =  3.78521080E+01)

 TIME-STEP YYYY-MM-DD hh:mm:ss.ss  KINETIC_ENRG   POTEN_ENRG    TOTAL_ENRG    NET_VOLUME
                     C => (i,j,k)       Cu            Cv            Cw         Max Speed

         0 2014-01-01 00:00:00.00  7.586637E-03  2.047606E+04  2.047607E+04  1.134919E+16
                     (219,047,30)  2.233397E-02  2.061906E-02  0.000000E+00  1.251420E+00
      DEF_HIS     - creating  history      file, Grid 01: /home/ivans/roms/cases/brz/brz0.05r/expts/d-temporary/roms_out/roms_his.nc
      WRT_HIS     - wrote history     fields (Index=1,1) in record = 1
      DEF_QUICK   - creating  quicksave    file, Grid 01: /home/ivans/roms/cases/brz/brz0.05r/expts/d-temporary/roms_out/roms_qck.nc
      WRT_QUICK   - wrote quicksave   fields (Index=1,1) in record = 1
      DEF_AVG     - creating  average      file, Grid 01: /home/ivans/roms/cases/brz/brz0.05r/expts/d-temporary/roms_out/roms_avg.nc
         1 2014-01-01 00:02:00.00  6.195489E-03  2.047628E+04  2.047629E+04  1.134920E+16
                     (109,490,01)  3.631161E-03  1.714318E-02  1.013301E+00  1.231550E+00
         2 2014-01-01 00:04:00.00  5.077638E-03  2.047631E+04  2.047632E+04  1.134921E+16
                     (109,491,30)  1.930912E-02  1.807164E-02  3.826827E+00  1.688581E+00
         3 2014-01-01 00:06:00.00  4.910630E-03  2.047625E+04  2.047625E+04  1.134922E+16
                     (110,491,30)  9.876620E-03  3.186822E-02  9.028639E+00  2.697756E+00
         4 2014-01-01 00:08:00.00  5.036978E-03  2.047617E+04  2.047617E+04  1.134924E+16
                     (110,492,30)  3.172090E-02  4.343871E-02  8.842821E+00  3.364691E+00
         5 2014-01-01 00:10:00.00  5.254793E-03  2.047610E+04  2.047611E+04  1.134925E+16
                     (110,492,30)  8.032923E-04  2.315486E-02  1.144098E+01  2.812744E+00
         6 2014-01-01 00:12:00.00  5.598650E-03  2.047607E+04  2.047608E+04  1.134927E+16
                     (110,491,30)  1.361222E-03  4.057908E-02  1.091231E+01  5.044374E+00
         7 2014-01-01 00:14:00.00  5.969080E-03  2.047604E+04  2.047605E+04  1.134928E+16
                     (110,492,30)  5.257183E-02  5.262362E-02  8.833774E+00  6.143775E+00
         8 2014-01-01 00:16:00.00  6.146823E-03  2.047599E+04  2.047600E+04  1.134929E+16
                     (110,491,30)  3.560098E-03  3.018428E-02  1.588455E+01  5.926831E+00
         9 2014-01-01 00:18:00.00  6.084122E-03  2.047594E+04  2.047595E+04  1.134930E+16
                     (058,496,30)  1.817019E-02  5.305557E-03  9.716476E+00  6.257565E+00
        10 2014-01-01 00:20:00.00  5.906979E-03  2.047591E+04  2.047591E+04  1.134931E+16
                     (111,493,30)  6.998718E-03  9.504235E-03  1.176012E+01  4.810247E+00
        11 2014-01-01 00:22:00.00  5.851195E-03  2.047589E+04  2.047590E+04  1.134933E+16
                     (110,492,30)  3.467769E-02  1.841205E-02  1.716472E+01  5.792526E+00
        12 2014-01-01 00:24:00.00  5.953277E-03  2.047589E+04  2.047590E+04  1.134934E+16
                     (110,492,30)  4.436198E-02  2.139588E-02  1.914390E+01  7.353175E+00
        13 2014-01-01 00:26:00.00  6.133033E-03  2.047591E+04  2.047592E+04  1.134936E+16
                     (111,493,30)  1.675509E-02  8.744920E-03  2.785557E+01  6.811354E+00
        14 2014-01-01 00:28:00.00  6.271799E-03  2.047597E+04  2.047597E+04  1.134940E+16
                     (111,493,30)  8.775101E-03  4.746775E-03  2.315469E+01  4.654728E+00
        15 2014-01-01 00:30:00.00  6.353275E-03  2.047604E+04  2.047605E+04  1.134944E+16
                     (112,493,30)  2.898907E-02  1.386996E-02  1.242328E+01  3.967661E+00
        16 2014-01-01 00:32:00.00  6.455185E-03  2.047612E+04  2.047613E+04  1.134949E+16
                     (015,550,30)  2.410970E-02  2.532538E-02  8.960942E+00  3.902212E+00
        17 2014-01-01 00:34:00.00  6.585002E-03  2.047618E+04  2.047619E+04  1.134953E+16
                     (058,496,30)  1.451019E-02  5.122824E-03  1.227329E+01  5.449836E+00
        18 2014-01-01 00:36:00.00  6.697931E-03  2.047621E+04  2.047622E+04  1.134957E+16
                     (021,512,30)  4.172460E-02  2.646180E-02  9.836748E+00  7.844165E+00
        19 2014-01-01 00:38:00.00  6.778075E-03  2.047621E+04  2.047622E+04  1.134958E+16
                     (021,512,30)  3.212638E-02  2.401586E-02  1.289238E+01  7.310968E+00
        20 2014-01-01 00:40:00.00  6.870499E-03  2.047620E+04  2.047620E+04  1.134958E+16
                     (018,517,30)  4.414358E-02  4.704668E-02  1.253444E+01  4.363398E+00
        21 2014-01-01 00:42:00.00  7.010036E-03  2.047618E+04  2.047619E+04  1.134958E+16
                     (018,517,30)  4.045079E-02  3.866871E-02  1.564073E+01  4.413061E+00
        22 2014-01-01 00:44:00.00  7.143138E-03  2.047618E+04  2.047619E+04  1.134959E+16
                     (018,517,30)  3.338865E-02  2.370232E-02  1.625038E+01  5.003297E+00
        23 2014-01-01 00:46:00.00  7.217456E-03  2.047620E+04  2.047621E+04  1.134960E+16
                     (111,493,30)  2.141058E-04  8.554530E-03  1.505932E+01  3.941650E+00
        24 2014-01-01 00:48:00.00  7.248592E-03  2.047624E+04  2.047624E+04  1.134962E+16
                     (015,552,30)  2.755854E-02  1.157970E-05  9.427288E+00  3.621356E+00
        25 2014-01-01 00:50:00.00  7.271487E-03  2.047628E+04  2.047629E+04  1.134964E+16
                     (111,492,30)  4.053185E-02  2.915990E-02  8.570640E+00  4.219618E+00
        26 2014-01-01 00:52:00.00  7.291540E-03  2.047634E+04  2.047635E+04  1.134966E+16
                     (110,492,30)  2.550020E-03  2.152551E-02  1.619520E+01  4.665600E+00
        27 2014-01-01 00:54:00.00  7.303688E-03  2.047639E+04  2.047640E+04  1.134968E+16
                     (110,492,30)  2.705083E-04  8.840333E-03  2.068071E+01  5.195947E+00
        28 2014-01-01 00:56:00.00  7.318253E-03  2.047643E+04  2.047644E+04  1.134969E+16
                     (016,551,30)  5.181436E-02  2.102940E-02  1.410895E+01  4.407331E+00
        29 2014-01-01 00:58:00.00  7.359664E-03  2.047645E+04  2.047646E+04  1.134971E+16
                     (016,551,30)  3.581922E-02  7.117136E-03  1.066715E+01  3.351349E+00
    GET_2DFLD   - surface u-wind component,                        2014-01-01 02:00:00.00
                   (Grid=01, Rec=3, Index=1, File: u_era2014b.nc)
                   (Tmin=       5114.0000 Tmax=       5479.9583)      t =       5114.0833
                   (Min = -8.87114800E+00 Max =  6.16432958E+00)      regrid = T
    GET_2DFLD   - surface v-wind component,                        2014-01-01 02:00:00.00
                   (Grid=01, Rec=3, Index=1, File: v_era2014b.nc)
                   (Tmin=       5114.0000 Tmax=       5479.9583)      t =       5114.0833
                   (Min = -1.02950616E+01 Max =  7.69996973E+00)      regrid = T
    GET_2DFLD   - surface air pressure,                            2014-01-01 02:00:00.00
                   (Grid=01, Rec=3, Index=1, File: pressure_era2014b.nc)
                   (Tmin=       5114.0000 Tmax=       5479.9583)      t =       5114.0833
                   (Min =  8.63662617E+02 Max =  1.01620621E+03)      regrid = T
    GET_2DFLD   - solar shortwave radiation flux,                  2014-01-01 02:00:00.00
                   (Grid=01, Rec=3, Index=1, File: srad_era2014b.nc)
                   (Tmin=       5114.0000 Tmax=       5479.9583)      t =       5114.0833
                   (Min =  0.00000000E+00 Max =  0.00000000E+00)      regrid = T
    GET_2DFLD   - downwelling longwave radiation flux,             2014-01-01 02:00:00.00
                   (Grid=01, Rec=3, Index=1, File: lwrad_era2014b.nc)
                   (Tmin=       5114.0000 Tmax=       5479.9583)      t =       5114.0833
                   (Min =  7.58624842E-05 Max =  1.06761018E-04)      regrid = T
    GET_2DFLD   - surface air temperature,                         2014-01-01 02:00:00.00
                   (Grid=01, Rec=3, Index=1, File: temp_era2014b.nc)
                   (Tmin=       5114.0000 Tmax=       5479.9583)      t =       5114.0833
                   (Min =  1.64841514E+01 Max =  3.14951096E+01)      regrid = T
    GET_2DFLD   - surface air relative humidity,                   2014-01-01 02:00:00.00
                   (Grid=01, Rec=3, Index=1, File: humi_era2014b.nc)
                   (Tmin=       5114.0000 Tmax=       5479.9583)      t =       5114.0833
                   (Min =  4.38098968E-01 Max =  1.00356823E+00)      regrid = T
    GET_2DFLD   - rain fall rate,                                  2014-01-01 02:00:00.00
                   (Grid=01, Rec=3, Index=1, File: rain_era2014b.nc)
                   (Tmin=       5114.0000 Tmax=       5479.9583)      t =       5114.0833
                   (Min =  0.00000000E+00 Max =  6.76287789E-04)      regrid = T
        30 2014-01-01 01:00:00.00  7.432744E-03  2.047646E+04  2.047647E+04  1.134972E+16
                     (111,494,30)  1.409883E-02  2.448698E-03  6.503558E+00  4.485660E+00
      WRT_QUICK   - wrote quicksave   fields (Index=1,1) in record = 2
        31 2014-01-01 01:02:00.00  7.509539E-03  2.047648E+04  2.047648E+04  1.134974E+16
                     (110,492,30)  6.015484E-03  1.720870E-02  9.520161E+00  3.873481E+00
        32 2014-01-01 01:04:00.00  7.564164E-03  2.047650E+04  2.047651E+04  1.134976E+16
                     (110,492,30)  2.297545E-02  1.882010E-02  8.781330E+00  4.034766E+00
        33 2014-01-01 01:06:00.00  7.612109E-03  2.047651E+04  2.047652E+04  1.134978E+16
                     (026,505,30)  1.949537E-02  3.161204E-02  8.687627E+00  5.138185E+00
        34 2014-01-01 01:08:00.00  7.670374E-03  2.047651E+04  2.047651E+04  1.134978E+16
                     (111,493,30)  7.745149E-03  5.446366E-02  8.628395E+00  4.146304E+00
        35 2014-01-01 01:10:00.00  7.717996E-03  2.047648E+04  2.047649E+04  1.134979E+16
                     (111,492,30)  1.997050E-02  1.576751E-02  7.300650E+00  3.810226E+00
        36 2014-01-01 01:12:00.00  7.741310E-03  2.047644E+04  2.047645E+04  1.134979E+16
                     (016,551,30)  2.714912E-02  6.422748E-03  7.693868E+00  3.283313E+00
        37 2014-01-01 01:14:00.00  7.761020E-03  2.047641E+04  2.047642E+04  1.134979E+16
                     (022,511,30)  1.893754E-02  3.016176E-03  8.169822E+00  3.815902E+00
        38 2014-01-01 01:16:00.00  7.779450E-03  2.047640E+04  2.047640E+04  1.134980E+16
                     (111,492,30)  1.123662E-02  5.085601E-02  1.132758E+01  4.258568E+00
        39 2014-01-01 01:18:00.00  7.781517E-03  2.047640E+04  2.047641E+04  1.134981E+16
                     (111,492,30)  2.139058E-03  4.063147E-02  1.709093E+01  3.604679E+00
        40 2014-01-01 01:20:00.00  7.775153E-03  2.047642E+04  2.047643E+04  1.134983E+16
                     (111,492,30)  1.732788E-02  2.634524E-02  1.311683E+01  3.334405E+00
        41 2014-01-01 01:22:00.00  7.776736E-03  2.047644E+04  2.047645E+04  1.134984E+16
[...]
       688 2014-01-01 22:56:00.00  8.420130E-03  2.047569E+04  2.047569E+04  1.134886E+16
                     (129,445,01)  1.475287E-03  5.824975E-03  8.339081E-01  1.763827E+00
       689 2014-01-01 22:58:00.00  8.420847E-03  2.047566E+04  2.047567E+04  1.134885E+16
                     (129,445,01)  1.538377E-03  5.609429E-03  8.185770E-01  1.765737E+00
    GET_2DFLD   - surface u-wind component,                        2014-01-02 00:00:00.00
                   (Grid=01, Rec=25, Index=1, File: u_era2014b.nc)
                   (Tmin=       5114.0000 Tmax=       5479.9583)      t =       5115.0000
                   (Min = -8.94483486E+00 Max =  5.98309197E+00)      regrid = T
    GET_2DFLD   - surface v-wind component,                        2014-01-02 00:00:00.00
                   (Grid=01, Rec=25, Index=1, File: v_era2014b.nc)
                   (Tmin=       5114.0000 Tmax=       5479.9583)      t =       5115.0000
                   (Min = -1.08410439E+01 Max =  6.07349045E+00)      regrid = T
    GET_2DFLD   - surface air pressure,                            2014-01-02 00:00:00.00
                   (Grid=01, Rec=25, Index=1, File: pressure_era2014b.nc)
                   (Tmin=       5114.0000 Tmax=       5479.9583)      t =       5115.0000
                   (Min =  8.63316270E+02 Max =  1.01621012E+03)      regrid = T
    GET_2DFLD   - solar shortwave radiation flux,                  2014-01-02 00:00:00.00
                   (Grid=01, Rec=25, Index=1, File: srad_era2014b.nc)
                   (Tmin=       5114.0000 Tmax=       5479.9583)      t =       5115.0000
                   (Min =  0.00000000E+00 Max =  0.00000000E+00)      regrid = T
    GET_2DFLD   - downwelling longwave radiation flux,             2014-01-02 00:00:00.00
                   (Grid=01, Rec=25, Index=1, File: lwrad_era2014b.nc)
                   (Tmin=       5114.0000 Tmax=       5479.9583)      t =       5115.0000
                   (Min =  7.76661279E-05 Max =  1.07005875E-04)      regrid = T
    GET_2DFLD   - surface air temperature,                         2014-01-02 00:00:00.00
                   (Grid=01, Rec=25, Index=1, File: temp_era2014b.nc)
                   (Tmin=       5114.0000 Tmax=       5479.9583)      t =       5115.0000
                   (Min =  1.80024367E+01 Max =  2.89062663E+01)      regrid = T
    GET_2DFLD   - surface air relative humidity,                   2014-01-02 00:00:00.00
                   (Grid=01, Rec=25, Index=1, File: humi_era2014b.nc)
                   (Tmin=       5114.0000 Tmax=       5479.9583)      t =       5115.0000
                   (Min =  5.40508744E-01 Max =  1.00360743E+00)      regrid = T
    GET_2DFLD   - rain fall rate,                                  2014-01-02 00:00:00.00
                   (Grid=01, Rec=25, Index=1, File: rain_era2014b.nc)
                   (Tmin=       5114.0000 Tmax=       5479.9583)      t =       5115.0000
                   (Min =  0.00000000E+00 Max =  3.87536274E-03)      regrid = T
       690 2014-01-01 23:00:00.00  8.421369E-03  2.047564E+04  2.047565E+04  1.134883E+16
                     (129,445,01)  1.604706E-03  5.389100E-03  8.021780E-01  1.767642E+00
      WRT_QUICK   - wrote quicksave   fields (Index=1,1) in record = 24
       691 2014-01-01 23:02:00.00  8.421748E-03  2.047562E+04  2.047563E+04  1.134881E+16
                     (129,445,01)  1.674250E-03  5.163844E-03  7.848979E-01  1.769444E+00
       692 2014-01-01 23:04:00.00  8.422050E-03  2.047560E+04  2.047560E+04  1.134880E+16
                     (129,445,01)  1.746010E-03  4.933876E-03  7.667054E-01  1.771225E+00
       693 2014-01-01 23:06:00.00  8.422090E-03  2.047557E+04  2.047558E+04  1.134878E+16
                     (129,445,01)  1.849755E-03  4.699112E-03  7.470741E-01  1.773015E+00
       694 2014-01-01 23:08:00.00  8.421985E-03  2.047555E+04  2.047556E+04  1.134877E+16
                     (129,445,01)  1.934360E-03  4.459286E-03  7.251046E-01  1.774775E+00
       695 2014-01-01 23:10:00.00  8.421861E-03  2.047553E+04  2.047554E+04  1.134875E+16
                     (103,433,01)  5.474582E-03  4.099179E-03  7.230360E-01  1.776613E+00
       696 2014-01-01 23:12:00.00  8.421346E-03  2.047551E+04  2.047552E+04  1.134874E+16
                     (103,433,01)  5.514842E-03  3.991488E-03  7.292123E-01  1.778446E+00
       697 2014-01-01 23:14:00.00  8.420632E-03  2.047549E+04  2.047550E+04  1.134872E+16
                     (103,433,01)  5.543559E-03  3.873160E-03  7.337553E-01  1.780338E+00
       698 2014-01-01 23:16:00.00  8.419644E-03  2.047547E+04  2.047548E+04  1.134871E+16
                     (121,431,01)  5.841461E-03  9.047486E-03  7.372447E-01  1.782234E+00
       699 2014-01-01 23:18:00.00  8.418554E-03  2.047545E+04  2.047546E+04  1.134869E+16
                     (121,431,01)  6.148291E-03  9.138868E-03  7.584225E-01  1.784229E+00
       700 2014-01-01 23:20:00.00  8.417334E-03  2.047543E+04  2.047544E+04  1.134868E+16
                     (121,431,01)  6.424266E-03  9.207533E-03  7.769592E-01  1.786226E+00
       701 2014-01-01 23:22:00.00  8.416023E-03  2.047541E+04  2.047542E+04  1.134866E+16
                     (121,431,01)  6.667992E-03  9.254018E-03  7.927073E-01  1.788321E+00
       702 2014-01-01 23:24:00.00  8.414486E-03  2.047539E+04  2.047540E+04  1.134865E+16
                     (121,431,01)  6.878317E-03  9.277760E-03  8.056115E-01  1.790415E+00
       703 2014-01-01 23:26:00.00  8.412700E-03  2.047537E+04  2.047538E+04  1.134864E+16
                     (121,431,01)  7.054238E-03  9.278380E-03  8.155852E-01  1.792489E+00
       704 2014-01-01 23:28:00.00  8.410736E-03  2.047535E+04  2.047536E+04  1.134862E+16
                     (121,431,01)  7.194889E-03  9.255658E-03  8.225588E-01  1.794656E+00
       705 2014-01-01 23:30:00.00  8.408725E-03  2.047533E+04  2.047534E+04  1.134861E+16
                     (121,431,01)  7.299615E-03  9.209380E-03  8.264747E-01  1.797363E+00
       706 2014-01-01 23:32:00.00  8.406386E-03  2.047531E+04  2.047532E+04  1.134860E+16
                     (121,431,01)  7.368050E-03  9.139536E-03  8.272888E-01  1.800175E+00
       707 2014-01-01 23:34:00.00  8.404045E-03  2.047529E+04  2.047530E+04  1.134859E+16
                     (121,431,01)  7.399687E-03  9.046329E-03  8.249789E-01  1.802983E+00
       708 2014-01-01 23:36:00.00  8.401448E-03  2.047527E+04  2.047528E+04  1.134857E+16
                     (121,431,01)  7.394518E-03  8.929858E-03  8.195274E-01  1.805781E+00
       709 2014-01-01 23:38:00.00  8.398898E-03  2.047525E+04  2.047526E+04  1.134856E+16
                     (121,431,01)  7.352603E-03  8.790773E-03  8.109370E-01  1.808259E+00
       710 2014-01-01 23:40:00.00  8.395975E-03  2.047524E+04  2.047525E+04  1.134855E+16
                     (121,431,01)  7.272973E-03  8.629849E-03  7.992415E-01  1.810508E+00
       711 2014-01-01 23:42:00.00  8.392982E-03  2.047522E+04  2.047523E+04  1.134854E+16
                     (121,431,01)  7.156636E-03  8.447734E-03  7.844319E-01  1.812701E+00
       712 2014-01-01 23:44:00.00  8.389827E-03  2.047520E+04  2.047521E+04  1.134853E+16
                     (121,431,01)  7.003743E-03  8.245396E-03  7.665784E-01  1.814843E+00
       713 2014-01-01 23:46:00.00  8.386652E-03  2.047519E+04  2.047519E+04  1.134852E+16
                     (121,431,01)  6.814583E-03  8.023507E-03  7.457337E-01  1.816821E+00
       714 2014-01-01 23:48:00.00  8.383440E-03  2.047517E+04  2.047518E+04  1.134851E+16
                     (121,431,01)  6.589867E-03  7.782950E-03  7.219496E-01  1.818727E+00
       715 2014-01-01 23:50:00.00  8.380045E-03  2.047515E+04  2.047516E+04  1.134850E+16
                     (121,431,01)  6.330254E-03  7.524491E-03  6.953067E-01  1.820415E+00
       716 2014-01-01 23:52:00.00  8.376513E-03  2.047514E+04  2.047515E+04  1.134849E+16
                     (120,431,01)  5.167639E-04  8.612965E-03  6.936077E-01  1.822075E+00
       717 2014-01-01 23:54:00.00  8.372976E-03  2.047513E+04  2.047513E+04  1.134848E+16
                     (120,431,01)  5.296540E-04  8.653114E-03  6.943317E-01  1.824891E+00
       718 2014-01-01 23:56:00.00  8.369430E-03  2.047511E+04  2.047512E+04  1.134847E+16
                     (120,431,01)  5.286231E-04  8.682843E-03  6.927939E-01  1.829249E+00
       719 2014-01-01 23:58:00.00  8.365841E-03  2.047510E+04  2.047511E+04  1.134846E+16
                     (120,431,01)  5.130573E-04  8.704160E-03  6.889249E-01  1.833624E+00
    GET_2DFLD   - surface u-wind component,                        2014-01-02 01:00:00.00
                   (Grid=01, Rec=26, Index=2, File: u_era2014b.nc)
                   (Tmin=       5114.0000 Tmax=       5479.9583)      t =       5115.0417
                   (Min = -8.77214120E+00 Max =  5.54680622E+00)      regrid = T
    GET_2DFLD   - surface v-wind component,                        2014-01-02 01:00:00.00
                   (Grid=01, Rec=26, Index=2, File: v_era2014b.nc)
                   (Tmin=       5114.0000 Tmax=       5479.9583)      t =       5115.0417
                   (Min = -1.18618956E+01 Max =  5.19692051E+00)      regrid = T
    GET_2DFLD   - surface air pressure,                            2014-01-02 01:00:00.00
                   (Grid=01, Rec=26, Index=2, File: pressure_era2014b.nc)
                   (Tmin=       5114.0000 Tmax=       5479.9583)      t =       5115.0417
                   (Min =  8.63686843E+02 Max =  1.01671711E+03)      regrid = T
    GET_2DFLD   - solar shortwave radiation flux,                  2014-01-02 01:00:00.00
                   (Grid=01, Rec=26, Index=2, File: srad_era2014b.nc)
                   (Tmin=       5114.0000 Tmax=       5479.9583)      t =       5115.0417
                   (Min =  0.00000000E+00 Max =  0.00000000E+00)      regrid = T
    GET_2DFLD   - downwelling longwave radiation flux,             2014-01-02 01:00:00.00
                   (Grid=01, Rec=26, Index=2, File: lwrad_era2014b.nc)
                   (Tmin=       5114.0000 Tmax=       5479.9583)      t =       5115.0417
                   (Min =  7.76282412E-05 Max =  1.06703806E-04)      regrid = T
    GET_2DFLD   - surface air temperature,                         2014-01-02 01:00:00.00
                   (Grid=01, Rec=26, Index=2, File: temp_era2014b.nc)
                   (Tmin=       5114.0000 Tmax=       5479.9583)      t =       5115.0417
                   (Min =  1.81233465E+01 Max =  2.91224909E+01)      regrid = T
    GET_2DFLD   - surface air relative humidity,                   2014-01-02 01:00:00.00
                   (Grid=01, Rec=26, Index=2, File: humi_era2014b.nc)
                   (Tmin=       5114.0000 Tmax=       5479.9583)      t =       5115.0417
                   (Min =  5.66951410E-01 Max =  9.99557981E-01)      regrid = T
    GET_2DFLD   - rain fall rate,                                  2014-01-02 01:00:00.00
                   (Grid=01, Rec=26, Index=2, File: rain_era2014b.nc)
                   (Tmin=       5114.0000 Tmax=       5479.9583)      t =       5115.0417
                   (Min =  0.00000000E+00 Max =  3.48151225E-03)      regrid = T
       720 2014-01-02 00:00:00.00  8.362131E-03  2.047508E+04  2.047509E+04  1.134845E+16
                     (120,431,01)  4.832490E-04  8.715399E-03  6.828569E-01  1.841183E+00
      WRT_HIS     - wrote history     fields (Index=1,1) in record = 5
      WRT_QUICK   - wrote quicksave   fields (Index=1,1) in record = 25
      WRT_AVG     - wrote averaged    fields             in record = 1
      WRT_RST     - wrote re-start    fields (Index=1,1) in record = 1

Elapsed wall CPU time for each process (seconds):

 Node   #   27 CPU:     560.584
 Node   #   28 CPU:     560.559
 Node   #   29 CPU:     560.658
 Node   #   30 CPU:     560.737
 Node   #   31 CPU:     560.474
 Node   #   32 CPU:     561.246
 Node   #   33 CPU:     560.918
 Node   #   34 CPU:     560.623
 Node   #   35 CPU:     560.557
 Node   #   36 CPU:     560.681
 Node   #   37 CPU:     560.383
 Node   #   38 CPU:     561.043
 Node   #    0 CPU:     488.638
 Node   #   39 CPU:     560.738
 Node   #    1 CPU:     560.659
 Node   #    2 CPU:     561.226
 Node   #    3 CPU:     560.641
 Node   #    4 CPU:     561.147
 Node   #    5 CPU:     561.029
 Node   #    6 CPU:     560.837
 Node   #    7 CPU:     560.512
 Node   #    8 CPU:     560.686
 Node   #    9 CPU:     560.669
 Node   #   10 CPU:     561.011
 Node   #   11 CPU:     560.290
 Node   #   12 CPU:     560.769
 Node   #   13 CPU:     561.001
 Node   #   14 CPU:     560.857
 Node   #   15 CPU:     560.612
 Node   #   16 CPU:     561.004
 Node   #   17 CPU:     560.750
 Node   #   18 CPU:     561.079
 Node   #   19 CPU:     560.737
 Node   #   20 CPU:     561.114
 Node   #   21 CPU:     560.773
 Node   #   22 CPU:     561.023
 Node   #   23 CPU:     560.830
 Node   #   24 CPU:     560.571
 Node   #   25 CPU:     560.228
 Node   #   26 CPU:     561.205
 Total:               22359.101
 Average:               558.978
 Minimum:               488.638
 Maximum:               561.246

 Nonlinear model elapsed CPU time profile, Grid: 01

  Allocation and array initialization ..............         8.939  ( 0.0400 %)
  Ocean state initialization .......................         7.395  ( 0.0331 %)
  Reading of input data ............................      3183.515  (14.2381 %)
  Processing of input data .........................      1167.910  ( 5.2234 %)
  Processing of output time averaged data ..........       451.042  ( 2.0173 %)
  Computation of vertical boundary conditions ......        19.273  ( 0.0862 %)
  Computation of global information integrals ......       313.360  ( 1.4015 %)
  Writing of output data ...........................       912.682  ( 4.0819 %)
  Model 2D kernel ..................................      2568.376  (11.4869 %)
  Tidal forcing ....................................       172.171  ( 0.7700 %)
  2D/3D coupling, vertical metrics .................       889.122  ( 3.9766 %)
  Omega vertical velocity ..........................       523.334  ( 2.3406 %)
  Equation of state for seawater ...................       765.761  ( 3.4248 %)
  Atmosphere-Ocean bulk flux parameterization ......       277.460  ( 1.2409 %)
  My2.5 vertical mixing parameterization ...........      3351.227  (14.9882 %)
  3D equations right-side terms ....................       541.993  ( 2.4240 %)
  3D equations predictor step ......................      2302.985  (10.3000 %)
  Pressure gradient ................................       346.298  ( 1.5488 %)
  Biharmonic mixing of tracers, isopycnals .........       658.464  ( 2.9450 %)
  Harmonic stress tensor, geopotentials ............       414.173  ( 1.8524 %)
  Corrector time-step for 3D momentum ..............      1152.140  ( 5.1529 %)
  Corrector time-step for tracers ..................      1740.199  ( 7.7830 %)
                                              Total:     21767.819   97.3555 %

  Unique kernel(s) regions profiled ................     21767.819   97.3555 %
  Residual, non-profiled code ......................       591.281    2.6445 %


 All percentages are with respect to total time =        22359.101


 MPI communications profile, Grid: 01

  Message Passage: 2D halo exchanges ...............      1978.793  ( 8.8501 %)
  Message Passage: 3D halo exchanges ...............      4279.537  (19.1400 %)
  Message Passage: 4D halo exchanges ...............      1495.624  ( 6.6891 %)
  Message Passage: data broadcast ..................      3358.023  (15.0186 %)
  Message Passage: data reduction ..................       121.354  ( 0.5428 %)
  Message Passage: data gathering ..................       350.146  ( 1.5660 %)
  Message Passage: data scattering..................       201.364  ( 0.9006 %)
  Message Passage: boundary data gathering .........        76.221  ( 0.3409 %)
  Message Passage: point data gathering ............         0.005  ( 0.0000 %)
  Message Passage: synchronization barrier .........         0.030  ( 0.0001 %)
                                              Total:     11861.098   53.0482 %

>>>>>>>>>>>>>>>>>>>>>>>>>>>>>>>>>>>>>>>>>>>>>>>>>>>>>>>>>>>>>>>>>>>>>>>>>>>>>>>>

 Dynamic and Automatic memory (MB) usage for Grid 01:  219x649x30  tiling: 8x5

     tile          Dynamic        Automatic            USAGE      MPI-Buffers

        0            72.27            71.36           143.63            49.28
        1            81.08            71.36           152.44            49.28
        2            81.08            71.36           152.44            49.28
        3            81.08            71.36           152.44            49.28
        4            81.08            71.36           152.44            49.28
        5            81.08            71.36           152.44            49.28
        6            81.08            71.36           152.44            49.28
        7            70.06            71.36           141.42            49.28
        8            73.25            71.36           144.61            49.28
        9            82.20            71.36           153.56            49.28
       10            82.20            71.36           153.56            49.28
       11            82.20            71.36           153.56            49.28
       12            82.20            71.36           153.56            49.28
       13            82.20            71.36           153.56            49.28
       14            82.20            71.36           153.56            49.28
       15            71.02            71.36           142.38            49.28
       16            73.25            71.36           144.61            49.28
       17            82.20            71.36           153.56            49.28
       18            82.20            71.36           153.56            49.28
       19            82.20            71.36           153.56            49.28
       20            82.20            71.36           153.56            49.28
       21            82.20            71.36           153.56            49.28
       22            82.20            71.36           153.56            49.28
       23            71.02            71.36           142.38            49.28
       24            73.25            71.36           144.61            49.28
       25            82.20            71.36           153.56            49.28
       26            82.20            71.36           153.56            49.28
       27            82.20            71.36           153.56            49.28
       28            82.20            71.36           153.56            49.28
       29            82.20            71.36           153.56            49.28
       30            82.20            71.36           153.56            49.28
       31            71.02            71.36           142.38            49.28
       32            71.77            71.36           143.13            49.28
       33            80.52            71.36           151.88            49.28
       34            80.52            71.36           151.88            49.28
       35            80.52            71.36           151.88            49.28
       36            80.52            71.36           151.88            49.28
       37            80.52            71.36           151.88            49.28
       38            80.52            71.36           151.88            49.28
       39            69.59            71.36           140.95            49.28

    TOTAL          3165.76          2854.40          6020.16          1971.30

<<<<<<<<<<<<<<<<<<<<<<<<<<<<<<<<<<<<<<<<<<<<<<<<<<<<<<<<<<<<<<<<<<<<<<<<<<<<<<<<

 ROMS/TOMS - Output NetCDF summary for Grid 01:
             number of time records written in HISTORY file = 5
             number of time records written in RESTART file = 1
             number of time records written in AVERAGE file = 1

 Analytical header files used:

     ROMS/Functionals/ana_btflux.h

 ROMS/TOMS: DONE... Thursday - December 8, 2022 -  9:23:46 AM
